LL_Report_PartII/A01_BaseCaseWithoutPPA_07062018.raw
0,100.0


1,'Costa su    ',115.0,1,0.0,0.0,1,1,1.0299797724,-4.4855263989,1
2,'Bayamon     ',115.0,1,0.0,0.0,1,1,1.0157342782,-7.3834643318,1
3,'Rio Laja    ',115.0,1,0.0,0.0,1,1,1.0080198264,-8.9065240028,1
4,'Mayaguez    ',115.0,1,0.0,0.0,1,1,1.0292807774,-7.3798480333,1
5,'Aguadill    ',115.0,1,0.0,0.0,1,1,1.0224090853,-8.3283912308,1
6,'Mora        ',115.0,1,0.0,0.0,1,1,1.0136940718,-8.5127476506,1
7,'San Anto    ',115.0,1,0.0,0.0,1,1,1.0117758301,-8.5775637268,1
8,'Monacill    ',115.0,1,0.0,0.0,1,1,1.0176683246,-7.7283207342,1
9,'Aguas Bu    ',115.0,1,0.0,0.0,1,1,1.0159850299,-7.1069036414,1
10,'Aurora      ',115.0,1,0.0,0.0,1,1,1.0095666865,-6.0560413094,1
11,'Ecoelect    ',115.0,1,0.0,0.0,1,1,0.9863131222,-7.793099987,1
12,'Arecibo     ',115.0,1,0.0,0.0,1,1,1.0130829391,-8.6781391072,1
13,'Toro Neg    ',115.0,1,0.0,0.0,1,1,0.9949215271,-8.6687103169,1
14,'Ponce       ',115.0,1,0.0,0.0,1,1,0.9909842743,-7.2530288862,1
15,'San Seba    ',115.0,1,0.0,0.0,1,1,1.0176745817,-8.3181006019,1
16,'Don Boco    ',115.0,1,0.0,0.0,1,1,1.0174968827,-8.4174913863,1
17,'Pajaros     ',115.0,1,0.0,0.0,1,1,1.0140811969,-8.1805062916,1
18,'Ciales      ',115.0,1,0.0,0.0,1,1,1.0178171457,-8.3345028328,1
19,'Dos Boca    ',115.0,1,0.0,0.0,1,1,1.0174984758,-8.4202092067,1
20,'Sabana L    ',115.0,1,0.0,0.0,1,1,1.020069824,-8.0776305119,1
21,'Caguas      ',115.0,1,0.0,0.0,1,1,1.0162291377,-5.8166230876,1
22,'San Juan    ',115.0,1,0.0,0.0,1,1,1.0148519266,-7.8756611632,1
23,'Puerto N    ',115.0,1,0.0,0.0,1,1,1.014866974,-7.8758009917,1
24,'Union Ca    ',115.0,1,0.0,0.0,1,1,1.0121046751,-8.6014428005,1
25,'San Juan    ',115.0,1,0.0,0.0,1,1,1.0146752837,-7.6857707402,1
26,'Hato Rey    ',115.0,1,0.0,0.0,1,1,1.0154568256,-7.9275944775,1
27,'Daguao      ',115.0,1,0.0,0.0,1,1,1.0139944018,-9.0799626379,1
28,'Trujillo    ',115.0,1,0.0,0.0,1,1,1.0185071975,-8.1259508535,1
29,'Fajardo     ',115.0,1,0.0,0.0,1,1,1.0190669706,-10.2022406724,1
30,'Aguirre     ',115.0,3,0.0,0.0,1,1,0.9923443349,0.0,1
31,'Maunabo     ',115.0,1,0.0,0.0,1,1,1.015280448,-7.6021915736,1
32,'Candeler    ',115.0,1,0.0,0.0,1,1,1.0133438461,-8.6030071288,1
33,'Humacao     ',115.0,1,0.0,0.0,1,1,1.009508367,-9.0361989097,1
34,'Comerio     ',115.0,1,0.0,0.0,1,1,1.0101039689,-7.3084096016,1
35,'Coto Nor    ',115.0,1,0.0,0.0,1,1,1.0124065544,-9.4435227044,1
36,'Monte Ca    ',115.0,1,0.0,0.0,1,1,0.9942331491,-10.7624875872,1
37,'Central     ',115.0,1,0.0,0.0,1,1,1.0101983981,-7.1378334801,1
38,'Cayey       ',115.0,1,0.0,0.0,1,1,1.0101904015,-6.6297782549,1
39,'Toro Neg    ',115.0,1,0.0,0.0,1,1,1.0209746036,-7.1532201954,1
40,'Central     ',115.0,1,0.0,0.0,1,1,1.0162992211,-6.775168334,1
41,'Planta d    ',115.0,1,0.0,0.0,1,1,1.0106837876,-6.806230841,1
42,'Planta d    ',115.0,1,0.0,0.0,1,1,1.0132991713,-5.50139117,1
43,'Central     ',115.0,1,0.0,0.0,1,1,1.0093345802,-7.1957315402,1
44,'Rio Blan    ',115.0,1,0.0,0.0,1,1,1.0150744647,-8.60818778,1
45,'Quebrada    ',115.0,1,0.0,0.0,1,1,1.0151520253,-8.7117571025,1
46,'Caonilla    ',115.0,2,0.0,0.0,1,1,1.0218592913,-8.1667175644,1
47,'Loiza Ta    ',115.0,1,0.0,0.0,1,1,1.0186928615,-8.5800923074,1
48,'Yabucoa     ',115.0,1,0.0,0.0,1,1,1.0197187818,-8.1541250438,1
49,'Planta H    ',115.0,1,0.0,0.0,1,1,1.0107694725,-6.9031061646,1
50,'Olimpo T    ',115.0,1,0.0,0.0,1,1,1.0093254523,-7.2232033515,1
51,'Aguas Bu    ',230.0,1,0.0,0.0,1,1,1.0356041611,-6.7646463541,1
52,'Aguirre_    ',230.0,1,0.0,0.0,1,1,1.0401384184,-5.1548230101,1
53,'Aurora_H    ',230.0,1,0.0,0.0,1,1,1.0336266323,-6.9748386313,1
54,'Bayamon_    ',230.0,1,0.0,0.0,1,1,1.0351588595,-6.9411448424,1
55,'Candeler    ',230.0,1,0.0,0.0,1,1,1.0289248954,-7.4951723075,1
56,'Comerio_    ',230.0,1,0.0,0.0,1,1,1.0151350307,-7.1305035668,1
57,'Costa su    ',230.0,1,0.0,0.0,1,1,1.0472386289,-5.8175291328,1
58,'Coto Nor    ',230.0,1,0.0,0.0,1,1,1.0378233215,-7.1417824617,1
59,'Mayaguez    ',230.0,1,0.0,0.0,1,1,1.0443775423,-6.497503089,1
60,'Rio Blan    ',230.0,1,0.0,0.0,1,1,1.0301734666,-7.6036160721,1
61,'Sabana L    ',230.0,1,0.0,0.0,1,1,1.0343500698,-7.2155474874,1
62,'kVSub19     ',38.0,1,0.0,0.0,1,1,1.0027910462,-8.643695779,1
63,'kVSub21     ',38.0,1,0.0,0.0,1,1,1.0074789104,-8.6052513376,1
64,'kVSub28     ',38.0,1,0.0,0.0,1,1,1.0074795467,-8.6052770348,1
65,'kVSub46     ',38.0,1,0.0,0.0,1,1,1.007479515,-8.6052626839,1
66,'kVSub66     ',38.0,1,0.0,0.0,1,1,1.0173322573,-9.0197398981,1
67,'kVSub124    ',38.0,1,0.0,0.0,1,1,1.0074793853,-8.6052173596,1
68,'kVSub41     ',38.0,1,0.0,0.0,1,1,1.0227483136,-1.5738443297,1
69,'kVSub0      ',38.0,2,0.0,0.0,1,1,1.0227485898,-1.5737609827,1
70,'kVSub102    ',38.0,1,0.0,0.0,1,1,1.0074789642,-8.6052614908,1
71,'kVSub139    ',38.0,1,0.0,0.0,1,1,1.0173327235,-9.0197641677,1
72,'kVSub285    ',38.0,1,0.0,0.0,1,1,0.9770703935,-8.91043425,1
73,'kVSub297    ',38.0,1,0.0,0.0,1,1,1.0059162588,-11.7296226864,1
74,'kVSub136    ',38.0,1,0.0,0.0,1,1,1.007486715,-8.6048590857,1
75,'kVSub142    ',38.0,1,0.0,0.0,1,1,0.9926002662,-11.0031341345,1
76,'kVSub192    ',38.0,1,0.0,0.0,1,1,1.0080095965,-8.8596823844,1
77,'kVSub294    ',38.0,1,0.0,0.0,1,1,0.9540872522,-15.299742962,1
78,'kVSub88     ',38.0,1,0.0,0.0,1,1,1.0073340087,-7.3858789301,1
79,'kVSub83     ',38.0,1,0.0,0.0,1,1,1.0227481376,-1.5738450316,1
80,'kVSub239    ',38.0,1,0.0,0.0,1,1,1.0074780221,-8.6056977071,1
81,'kVSub245    ',38.0,1,0.0,0.0,1,1,1.0074795602,-8.6052026538,1
82,'kVSub264    ',38.0,1,0.0,0.0,1,1,1.007478323,-8.6056157551,1
83,'kVSub299    ',38.0,1,0.0,0.0,1,1,1.0074795584,-8.6052755709,1
84,'kVSub165    ',38.0,1,0.0,0.0,1,1,1.0173327226,-9.0197657546,1
85,'kVSub182    ',38.0,1,0.0,0.0,1,1,1.0173327191,-9.019763847,1
86,'kVSub288    ',38.0,1,0.0,0.0,1,1,0.9875273899,-9.5584948059,1
87,'kVSub125    ',38.0,1,0.0,0.0,1,1,1.0074795198,-8.6052630115,1
88,'kVSub230    ',38.0,1,0.0,0.0,1,1,1.0074789626,-8.6052657738,1
89,'kVSub54     ',38.0,1,0.0,0.0,1,1,1.0074795173,-8.60526298,1
90,'kVSub100    ',38.0,1,0.0,0.0,1,1,1.0074796195,-8.6052729901,1
91,'kVSub260    ',38.0,1,0.0,0.0,1,1,1.0074784479,-8.6055771436,1
92,'kVSub53     ',38.0,1,0.0,0.0,1,1,1.010465496,-9.2678489923,1
93,'kVSub2      ',38.0,2,0.0,0.0,1,1,1.0227483029,-1.5738406968,1
94,'kVSub58     ',38.0,1,0.0,0.0,1,1,1.0074795152,-8.6052631335,1
95,'kVSub178    ',38.0,1,0.0,0.0,1,1,1.0074779331,-8.6057252192,1
96,'kVSub70     ',38.0,1,0.0,0.0,1,1,1.0074796197,-8.6052713127,1
97,'kVSub1      ',38.0,2,0.0,0.0,1,1,1.017332586,-9.0197678877,1
98,'kVSub101    ',38.0,1,0.0,0.0,1,1,1.0074789618,-8.6052601726,1
99,'kVSub103    ',38.0,1,0.0,0.0,1,1,1.0074792238,-8.6052708951,1
100,'kVSub104    ',38.0,1,0.0,0.0,1,1,1.0074795458,-8.6052757188,1
101,'kVSub105    ',38.0,1,0.0,0.0,1,1,1.007479544,-8.6052754582,1
102,'kVSub107    ',38.0,1,0.0,0.0,1,1,1.0074790316,-8.6052971144,1
103,'kVSub108    ',38.0,1,0.0,0.0,1,1,1.0074790286,-8.6052976209,1
104,'kVSub109    ',38.0,1,0.0,0.0,1,1,1.0227485687,-1.5737645776,1
105,'kVSub11     ',38.0,1,0.0,0.0,1,1,1.0074791721,-8.6053501002,1
106,'kVSub110    ',38.0,1,0.0,0.0,1,1,1.0227485709,-1.5737642058,1
107,'kVSub111    ',38.0,1,0.0,0.0,1,1,1.0227485687,-1.5737645795,1
108,'kVSub112    ',38.0,1,0.0,0.0,1,1,1.022748569,-1.5737645445,1
109,'kVSub113    ',38.0,1,0.0,0.0,1,1,1.0227485711,-1.5737641718,1
110,'kVSub114    ',38.0,1,0.0,0.0,1,1,1.0227485709,-1.5737642058,1
111,'kVSub115    ',38.0,1,0.0,0.0,1,1,1.0074790999,-8.6052891986,1
112,'kVSub116    ',38.0,1,0.0,0.0,1,1,1.0,0.0,1
113,'kVSub117    ',38.0,1,0.0,0.0,1,1,1.0,0.0,1
114,'kVSub118    ',38.0,1,0.0,0.0,1,1,1.0074795156,-8.6052627855,1
115,'kVSub120    ',38.0,1,0.0,0.0,1,1,1.0074795156,-8.6052627855,1
116,'kVSub121    ',38.0,1,0.0,0.0,1,1,1.0074795156,-8.6052627819,1
117,'kVSub122    ',38.0,1,0.0,0.0,1,1,1.0074795149,-8.605262902,1
118,'kVSub123    ',38.0,1,0.0,0.0,1,1,1.0074795121,-8.6052615577,1
119,'kVSub126    ',38.0,1,0.0,0.0,1,1,1.0074780204,-8.6056962116,1
120,'kVSub127    ',38.0,1,0.0,0.0,1,1,1.0074780187,-8.6056965113,1
121,'kVSub128    ',38.0,1,0.0,0.0,1,1,1.0,0.0,1
122,'kVSub129    ',38.0,1,0.0,0.0,1,1,1.007480568,-8.6051701205,1
123,'kVSub13     ',38.0,1,0.0,0.0,1,1,1.0074794891,-8.6052741691,1
124,'kVSub130    ',38.0,1,0.0,0.0,1,1,1.007489309,-8.6047054492,1
125,'kVSub131    ',38.0,1,0.0,0.0,1,1,1.0074795406,-8.6052072323,1
126,'kVSub132    ',38.0,1,0.0,0.0,1,1,1.0074785733,-8.605535373,1
127,'kVSub133    ',38.0,1,0.0,0.0,1,1,1.0074798012,-8.6052096473,1
128,'kVSub134    ',38.0,1,0.0,0.0,1,1,1.0074897998,-8.6046867704,1
129,'kVSub135    ',38.0,1,0.0,0.0,1,1,1.0173327282,-9.0197652561,1
130,'kVSub137    ',38.0,1,0.0,0.0,1,1,1.0074867263,-8.6048497121,1
131,'kVSub138    ',38.0,1,0.0,0.0,1,1,1.0074797782,-8.6052136243,1
132,'kVSub14     ',38.0,1,0.0,0.0,1,1,1.0,0.0,1
133,'kVSub140    ',38.0,1,0.0,0.0,1,1,1.0173327296,-9.0197650141,1
134,'kVSub141    ',38.0,1,0.0,0.0,1,1,1.0074796085,-8.6052429926,1
135,'kVSub143    ',38.0,1,0.0,0.0,1,1,0.9926002108,-11.0031438596,1
136,'kVSub144    ',38.0,1,0.0,0.0,1,1,1.0074897263,-8.6046888828,1
137,'kVSub145    ',38.0,1,0.0,0.0,1,1,1.0074796206,-8.6052408948,1
138,'kVSub147    ',38.0,1,0.0,0.0,1,1,1.0059162501,-11.7296241894,1
139,'kVSub148    ',38.0,1,0.0,0.0,1,1,1.0074898057,-8.6046857515,1
140,'kVSub149    ',38.0,1,0.0,0.0,1,1,1.0074898009,-8.6046865906,1
141,'kVSub150    ',38.0,1,0.0,0.0,1,1,1.0173327458,-9.019765865,1
142,'kVSub151    ',38.0,1,0.0,0.0,1,1,1.007477889,-8.6057272817,1
143,'kVSub152    ',38.0,1,0.0,0.0,1,1,1.0074898016,-8.6046864707,1
144,'kVSub153    ',38.0,1,0.0,0.0,1,1,0.9540870507,-15.2997755553,1
145,'kVSub154    ',38.0,1,0.0,0.0,1,1,1.0074796327,-8.6052387965,1
146,'kVSub155    ',38.0,1,0.0,0.0,1,1,1.0173327282,-9.0197652561,1
147,'kVSub156    ',38.0,1,0.0,0.0,1,1,1.0074794641,-8.6052580167,1
148,'kVSub157    ',38.0,1,0.0,0.0,1,1,1.0173327338,-9.0197654273,1
149,'kVSub158    ',38.0,1,0.0,0.0,1,1,1.0173327296,-9.0197650141,1
150,'kVSub159    ',38.0,1,0.0,0.0,1,1,1.0173327484,-9.0197654078,1
151,'kVSub16     ',38.0,1,0.0,0.0,1,1,1.0,0.0,1
152,'kVSub161    ',38.0,1,0.0,0.0,1,1,1.0173327484,-9.0197654078,1
153,'kVSub162    ',38.0,1,0.0,0.0,1,1,1.0173327458,-9.019765865,1
154,'kVSub163    ',38.0,1,0.0,0.0,1,1,1.0173327331,-9.0197653521,1
155,'kVSub164    ',38.0,1,0.0,0.0,1,1,1.007489805,-8.6046858714,1
156,'kVSub166    ',38.0,1,0.0,0.0,1,1,1.0074777314,-8.6057545528,1
157,'kVSub168    ',38.0,1,0.0,0.0,1,1,1.0074794936,-8.605269141,1
158,'kVSub169    ',38.0,1,0.0,0.0,1,1,1.0074795156,-8.6052627855,1
159,'kVSub17     ',38.0,1,0.0,0.0,1,1,1.007479544,-8.6052754528,1
160,'kVSub170    ',38.0,1,0.0,0.0,1,1,1.0074795678,-8.6052530763,1
161,'kVSub171    ',38.0,1,0.0,0.0,1,1,1.0074777265,-8.6057553919,1
162,'kVSub172    ',38.0,1,0.0,0.0,1,1,1.0074777265,-8.6057553919,1
163,'kVSub173    ',38.0,1,0.0,0.0,1,1,1.0074778041,-8.6057419661,1
164,'kVSub174    ',38.0,1,0.0,0.0,1,1,1.0173325584,-9.0197643895,1
165,'kVSub175    ',38.0,1,0.0,0.0,1,1,1.0074777354,-8.6057538535,1
166,'kVSub176    ',38.0,1,0.0,0.0,1,1,1.0074777314,-8.6057545528,1
167,'kVSub177    ',38.0,1,0.0,0.0,1,1,1.0074779288,-8.605720389,1
168,'kVSub179    ',38.0,1,0.0,0.0,1,1,1.0074787013,-8.6054979392,1
169,'kVSub18     ',38.0,1,0.0,0.0,1,1,1.0,0.0,1
170,'kVSub180    ',38.0,1,0.0,0.0,1,1,1.0074798012,-8.6052096473,1
171,'kVSub181    ',38.0,1,0.0,0.0,1,1,0.9540871899,-15.2997538781,1
172,'kVSub183    ',38.0,1,0.0,0.0,1,1,1.0173327484,-9.0197654078,1
173,'kVSub184    ',38.0,1,0.0,0.0,1,1,1.0074779323,-8.6057197896,1
174,'kVSub185    ',38.0,1,0.0,0.0,1,1,1.0074777556,-8.6057503572,1
175,'kVSub186    ',38.0,1,0.0,0.0,1,1,1.0,0.0,1
176,'kVSub187    ',38.0,1,0.0,0.0,1,1,1.0,0.0,1
177,'kVSub188    ',38.0,1,0.0,0.0,1,1,1.0,0.0,1
178,'kVSub189    ',38.0,1,0.0,0.0,1,1,0.9770703785,-8.9104369265,1
179,'kVSub190    ',38.0,1,0.0,0.0,1,1,1.0074777354,-8.6057538535,1
180,'kVSub191    ',38.0,1,0.0,0.0,1,1,1.0,0.0,1
181,'kVSub193    ',38.0,1,0.0,0.0,1,1,1.0,0.0,1
182,'kVSub194    ',38.0,1,0.0,0.0,1,1,1.0,0.0,1
183,'kVSub195    ',38.0,1,0.0,0.0,1,1,1.0,0.0,1
184,'kVSub196    ',38.0,1,0.0,0.0,1,1,0.9770703777,-8.9104370752,1
185,'kVSub197    ',38.0,1,0.0,0.0,1,1,1.0074796085,-8.6052429925,1
186,'kVSub198    ',38.0,1,0.0,0.0,1,1,1.0173325749,-9.0197724438,1
187,'kVSub20     ',38.0,1,0.0,0.0,1,1,1.007479544,-8.6052754582,1
188,'kVSub200    ',38.0,1,0.0,0.0,1,1,1.0074777354,-8.6057538535,1
189,'kVSub203    ',38.0,1,0.0,0.0,1,1,0.9926002185,-11.0031425089,1
190,'kVSub204    ',38.0,1,0.0,0.0,1,1,1.0074779323,-8.6057197896,1
191,'kVSub205    ',38.0,1,0.0,0.0,1,1,1.0074780204,-8.6056962116,1
192,'kVSub206    ',38.0,1,0.0,0.0,1,1,1.0074795156,-8.6052627855,1
193,'kVSub207    ',38.0,1,0.0,0.0,1,1,1.0059162498,-11.7296242496,1
194,'kVSub208    ',38.0,1,0.0,0.0,1,1,1.0074784854,-8.605562614,1
195,'kVSub209    ',38.0,1,0.0,0.0,1,1,1.0074785733,-8.605535373,1
196,'kVSub210    ',38.0,1,0.0,0.0,1,1,1.0173326049,-9.0197673005,1
197,'kVSub211    ',38.0,1,0.0,0.0,1,1,1.0173327296,-9.0197650141,1
198,'kVSub212    ',38.0,1,0.0,0.0,1,1,1.0173327296,-9.0197650141,1
199,'kVSub213    ',38.0,1,0.0,0.0,1,1,0.9540870763,-15.299775125,1
200,'kVSub214    ',38.0,1,0.0,0.0,1,1,1.0059162501,-11.7296241894,1
...
0 / END OF BUS DATA, BEGIN LOAD DATA
62,' C',1,1,1,6.3887612707,2.0998842815,0.0,0.0,0.0,0.0,1
62,' I',1,1,1,29.8142192634,9.7994599802,0.0,0.0,0.0,0.0,1
62,' P',1,1,1,6.3887612707,2.0998842815,0.0,0.0,0.0,0.0,1
63,' C',1,1,1,3.1402522837,1.0321510119,0.0,0.0,0.0,0.0,1
63,' I',1,1,1,14.6545106572,4.8167047222,0.0,0.0,0.0,0.0,1
63,' P',1,1,1,3.1402522837,1.0321510119,0.0,0.0,0.0,0.0,1
64,' C',1,1,1,6.3887612707,2.0998842815,0.0,0.0,0.0,0.0,1
64,' I',1,1,1,29.8142192634,9.7994599802,0.0,0.0,0.0,0.0,1
64,' P',1,1,1,6.3887612707,2.0998842815,0.0,0.0,0.0,0.0,1
65,' C',1,1,1,6.3887612707,2.0998842815,0.0,0.0,0.0,0.0,1
65,' I',1,1,1,29.8142192634,9.7994599802,0.0,0.0,0.0,0.0,1
65,' P',1,1,1,6.3887612707,2.0998842815,0.0,0.0,0.0,0.0,1
66,' C',1,1,1,3.1402522837,1.0321510119,0.0,0.0,0.0,0.0,1
66,' I',1,1,1,14.6545106572,4.8167047222,0.0,0.0,0.0,0.0,1
66,' P',1,1,1,3.1402522837,1.0321510119,0.0,0.0,0.0,0.0,1
67,' C',1,1,1,3.1402522837,1.0321510119,0.0,0.0,0.0,0.0,1
67,' I',1,1,1,14.6545106572,4.8167047222,0.0,0.0,0.0,0.0,1
67,' P',1,1,1,3.1402522837,1.0321510119,0.0,0.0,0.0,0.0,1
68,' C',1,1,1,6.3887612707,2.0998842815,0.0,0.0,0.0,0.0,1
68,' I',1,1,1,29.8142192634,9.7994599802,0.0,0.0,0.0,0.0,1
68,' P',1,1,1,6.3887612707,2.0998842815,0.0,0.0,0.0,0.0,1
69,' C',1,1,1,3.1402522837,1.0321510119,0.0,0.0,0.0,0.0,1
69,' I',1,1,1,14.6545106572,4.8167047222,0.0,0.0,0.0,0.0,1
69,' P',1,1,1,3.1402522837,1.0321510119,0.0,0.0,0.0,0.0,1
70,' C',1,1,1,6.3887612707,2.0998842815,0.0,0.0,0.0,0.0,1
70,' I',1,1,1,29.8142192634,9.7994599802,0.0,0.0,0.0,0.0,1
70,' P',1,1,1,6.3887612707,2.0998842815,0.0,0.0,0.0,0.0,1
71,' C',1,1,1,3.1402522837,1.0321510119,0.0,0.0,0.0,0.0,1
71,' I',1,1,1,14.6545106572,4.8167047222,0.0,0.0,0.0,0.0,1
71,' P',1,1,1,3.1402522837,1.0321510119,0.0,0.0,0.0,0.0,1
72,' C',1,1,1,3.1402522837,1.0321510119,0.0,0.0,0.0,0.0,1
72,' I',1,1,1,14.6545106572,4.8167047222,0.0,0.0,0.0,0.0,1
72,' P',1,1,1,3.1402522837,1.0321510119,0.0,0.0,0.0,0.0,1
73,' C',1,1,1,6.3887612707,2.0998842815,0.0,0.0,0.0,0.0,1
73,' I',1,1,1,29.8142192634,9.7994599802,0.0,0.0,0.0,0.0,1
73,' P',1,1,1,6.3887612707,2.0998842815,0.0,0.0,0.0,0.0,1
74,' C',1,1,1,6.3887612707,2.0998842815,0.0,0.0,0.0,0.0,1
74,' I',1,1,1,29.8142192634,9.7994599802,0.0,0.0,0.0,0.0,1
74,' P',1,1,1,6.3887612707,2.0998842815,0.0,0.0,0.0,0.0,1
75,' C',1,1,1,6.3887612707,2.0998842815,0.0,0.0,0.0,0.0,1
75,' I',1,1,1,29.8142192634,9.7994599802,0.0,0.0,0.0,0.0,1
75,' P',1,1,1,6.3887612707,2.0998842815,0.0,0.0,0.0,0.0,1
76,' C',1,1,1,6.3887612707,2.0998842815,0.0,0.0,0.0,0.0,1
76,' I',1,1,1,29.8142192634,9.7994599802,0.0,0.0,0.0,0.0,1
76,' P',1,1,1,6.3887612707,2.0998842815,0.0,0.0,0.0,0.0,1
77,' C',1,1,1,6.3887612707,2.0998842815,0.0,0.0,0.0,0.0,1
77,' I',1,1,1,29.8142192634,9.7994599802,0.0,0.0,0.0,0.0,1
77,' P',1,1,1,6.3887612707,2.0998842815,0.0,0.0,0.0,0.0,1
78,' C',1,1,1,6.3887612707,2.0998842815,0.0,0.0,0.0,0.0,1
78,' I',1,1,1,29.8142192634,9.7994599802,0.0,0.0,0.0,0.0,1
78,' P',1,1,1,6.3887612707,2.0998842815,0.0,0.0,0.0,0.0,1
79,' C',1,1,1,6.3887612707,2.0998842815,0.0,0.0,0.0,0.0,1
79,' I',1,1,1,29.8142192634,9.7994599802,0.0,0.0,0.0,0.0,1
79,' P',1,1,1,6.3887612707,2.0998842815,0.0,0.0,0.0,0.0,1
80,' C',1,1,1,6.3887612707,2.0998842815,0.0,0.0,0.0,0.0,1
80,' I',1,1,1,29.8142192634,9.7994599802,0.0,0.0,0.0,0.0,1
80,' P',1,1,1,6.3887612707,2.0998842815,0.0,0.0,0.0,0.0,1
81,' C',1,1,1,6.3887612707,2.0998842815,0.0,0.0,0.0,0.0,1
81,' I',1,1,1,29.8142192634,9.7994599802,0.0,0.0,0.0,0.0,1
81,' P',1,1,1,6.3887612707,2.0998842815,0.0,0.0,0.0,0.0,1
82,' C',1,1,1,6.3887612707,2.0998842815,0.0,0.0,0.0,0.0,1
82,' I',1,1,1,29.8142192634,9.7994599802,0.0,0.0,0.0,0.0,1
82,' P',1,1,1,6.3887612707,2.0998842815,0.0,0.0,0.0,0.0,1
83,' C',1,1,1,3.1402522837,1.0321510119,0.0,0.0,0.0,0.0,1
83,' I',1,1,1,14.6545106572,4.8167047222,0.0,0.0,0.0,0.0,1
83,' P',1,1,1,3.1402522837,1.0321510119,0.0,0.0,0.0,0.0,1
84,' C',1,1,1,6.3887612707,2.0998842815,0.0,0.0,0.0,0.0,1
84,' I',1,1,1,29.8142192634,9.7994599802,0.0,0.0,0.0,0.0,1
84,' P',1,1,1,6.3887612707,2.0998842815,0.0,0.0,0.0,0.0,1
85,' C',1,1,1,3.1402522837,1.0321510119,0.0,0.0,0.0,0.0,1
85,' I',1,1,1,14.6545106572,4.8167047222,0.0,0.0,0.0,0.0,1
85,' P',1,1,1,3.1402522837,1.0321510119,0.0,0.0,0.0,0.0,1
86,' C',1,1,1,3.1402522837,1.0321510119,0.0,0.0,0.0,0.0,1
86,' I',1,1,1,14.6545106572,4.8167047222,0.0,0.0,0.0,0.0,1
86,' P',1,1,1,3.1402522837,1.0321510119,0.0,0.0,0.0,0.0,1
87,' C',1,1,1,3.1402522837,1.0321510119,0.0,0.0,0.0,0.0,1
87,' I',1,1,1,14.6545106572,4.8167047222,0.0,0.0,0.0,0.0,1
87,' P',1,1,1,3.1402522837,1.0321510119,0.0,0.0,0.0,0.0,1
88,' C',1,1,1,3.1402522837,1.0321510119,0.0,0.0,0.0,0.0,1
88,' I',1,1,1,14.6545106572,4.8167047222,0.0,0.0,0.0,0.0,1
88,' P',1,1,1,3.1402522837,1.0321510119,0.0,0.0,0.0,0.0,1
89,' C',1,1,1,3.1402522837,1.0321510119,0.0,0.0,0.0,0.0,1
89,' I',1,1,1,14.6545106572,4.8167047222,0.0,0.0,0.0,0.0,1
89,' P',1,1,1,3.1402522837,1.0321510119,0.0,0.0,0.0,0.0,1
90,' C',1,1,1,6.3887612707,2.0998842815,0.0,0.0,0.0,0.0,1
90,' I',1,1,1,29.8142192634,9.7994599802,0.0,0.0,0.0,0.0,1
90,' P',1,1,1,6.3887612707,2.0998842815,0.0,0.0,0.0,0.0,1
91,' C',1,1,1,3.1402522837,1.0321510119,0.0,0.0,0.0,0.0,1
91,' I',1,1,1,14.6545106572,4.8167047222,0.0,0.0,0.0,0.0,1
91,' P',1,1,1,3.1402522837,1.0321510119,0.0,0.0,0.0,0.0,1
92,' C',1,1,1,3.1402522837,1.0321510119,0.0,0.0,0.0,0.0,1
92,' I',1,1,1,14.6545106572,4.8167047222,0.0,0.0,0.0,0.0,1
92,' P',1,1,1,3.1402522837,1.0321510119,0.0,0.0,0.0,0.0,1
93,' C',1,1,1,6.3887612707,2.0998842815,0.0,0.0,0.0,0.0,1
93,' I',1,1,1,29.8142192634,9.7994599802,0.0,0.0,0.0,0.0,1
93,' P',1,1,1,6.3887612707,2.0998842815,0.0,0.0,0.0,0.0,1
94,' C',1,1,1,6.3887612707,2.0998842815,0.0,0.0,0.0,0.0,1
94,' I',1,1,1,29.8142192634,9.7994599802,0.0,0.0,0.0,0.0,1
94,' P',1,1,1,6.3887612707,2.0998842815,0.0,0.0,0.0,0.0,1
95,' C',1,1,1,6.3887612707,2.0998842815,0.0,0.0,0.0,0.0,1
95,' I',1,1,1,29.8142192634,9.7994599802,0.0,0.0,0.0,0.0,1
95,' P',1,1,1,6.3887612707,2.0998842815,0.0,0.0,0.0,0.0,1
96,' C',1,1,1,3.1402522837,1.0321510119,0.0,0.0,0.0,0.0,1
96,' I',1,1,1,14.6545106572,4.8167047222,0.0,0.0,0.0,0.0,1
96,' P',1,1,1,3.1402522837,1.0321510119,0.0,0.0,0.0,0.0,1
97,' C',1,1,1,1.6723237014,0.5496662194,0.0,0.0,0.0,0.0,1
97,' I',1,1,1,7.8041772731,2.5651090237,0.0,0.0,0.0,0.0,1
97,' P',1,1,1,1.6723237014,0.5496662194,0.0,0.0,0.0,0.0,1
98,' C',1,1,1,1.6723237014,0.5496662194,0.0,0.0,0.0,0.0,1
98,' I',1,1,1,7.8041772731,2.5651090237,0.0,0.0,0.0,0.0,1
98,' P',1,1,1,1.6723237014,0.5496662194,0.0,0.0,0.0,0.0,1
99,' C',1,1,1,1.6723237014,0.5496662194,0.0,0.0,0.0,0.0,1
99,' I',1,1,1,7.8041772731,2.5651090237,0.0,0.0,0.0,0.0,1
99,' P',1,1,1,1.6723237014,0.5496662194,0.0,0.0,0.0,0.0,1
100,' C',1,1,1,1.6723237014,0.5496662194,0.0,0.0,0.0,0.0,1
100,' I',1,1,1,7.8041772731,2.5651090237,0.0,0.0,0.0,0.0,1
100,' P',1,1,1,1.6723237014,0.5496662194,0.0,0.0,0.0,0.0,1
101,' C',1,1,1,0.5574412338,0.1832220731,0.0,0.0,0.0,0.0,1
101,' I',1,1,1,2.6013924244,0.8550363412,0.0,0.0,0.0,0.0,1
101,' P',1,1,1,0.5574412338,0.1832220731,0.0,0.0,0.0,0.0,1
102,' C',1,1,1,0.5574412338,0.1832220731,0.0,0.0,0.0,0.0,1
102,' I',1,1,1,2.6013924244,0.8550363412,0.0,0.0,0.0,0.0,1
102,' P',1,1,1,0.5574412338,0.1832220731,0.0,0.0,0.0,0.0,1
103,' C',1,1,1,1.6723237014,0.5496662194,0.0,0.0,0.0,0.0,1
103,' I',1,1,1,7.8041772731,2.5651090237,0.0,0.0,0.0,0.0,1
103,' P',1,1,1,1.6723237014,0.5496662194,0.0,0.0,0.0,0.0,1
104,' C',1,1,1,1.6723237014,0.5496662194,0.0,0.0,0.0,0.0,1
104,' I',1,1,1,7.8041772731,2.5651090237,0.0,0.0,0.0,0.0,1
104,' P',1,1,1,1.6723237014,0.5496662194,0.0,0.0,0.0,0.0,1
105,' C',1,1,1,1.6723237014,0.5496662194,0.0,0.0,0.0,0.0,1
105,' I',1,1,1,7.8041772731,2.5651090237,0.0,0.0,0.0,0.0,1
105,' P',1,1,1,1.6723237014,0.5496662194,0.0,0.0,0.0,0.0,1
106,' C',1,1,1,0.5574412338,0.1832220731,0.0,0.0,0.0,0.0,1
106,' I',1,1,1,2.6013924244,0.8550363412,0.0,0.0,0.0,0.0,1
106,' P',1,1,1,0.5574412338,0.1832220731,0.0,0.0,0.0,0.0,1
107,' C',1,1,1,1.6723237014,0.5496662194,0.0,0.0,0.0,0.0,1
107,' I',1,1,1,7.8041772731,2.5651090237,0.0,0.0,0.0,0.0,1
107,' P',1,1,1,1.6723237014,0.5496662194,0.0,0.0,0.0,0.0,1
108,' C',1,1,1,1.6723237014,0.5496662194,0.0,0.0,0.0,0.0,1
108,' I',1,1,1,7.8041772731,2.5651090237,0.0,0.0,0.0,0.0,1
108,' P',1,1,1,1.6723237014,0.5496662194,0.0,0.0,0.0,0.0,1
109,' C',1,1,1,0.5574412338,0.1832220731,0.0,0.0,0.0,0.0,1
109,' I',1,1,1,2.6013924244,0.8550363412,0.0,0.0,0.0,0.0,1
109,' P',1,1,1,0.5574412338,0.1832220731,0.0,0.0,0.0,0.0,1
110,' C',1,1,1,0.5574412338,0.1832220731,0.0,0.0,0.0,0.0,1
110,' I',1,1,1,2.6013924244,0.8550363412,0.0,0.0,0.0,0.0,1
110,' P',1,1,1,0.5574412338,0.1832220731,0.0,0.0,0.0,0.0,1
111,' C',1,1,1,0.5574412338,0.1832220731,0.0,0.0,0.0,0.0,1
111,' I',1,1,1,2.6013924244,0.8550363412,0.0,0.0,0.0,0.0,1
111,' P',1,1,1,0.5574412338,0.1832220731,0.0,0.0,0.0,0.0,1
112,' C',1,1,1,0.5574412338,0.1832220731,0.0,0.0,0.0,0.0,1
112,' I',1,1,1,2.6013924244,0.8550363412,0.0,0.0,0.0,0.0,1
112,' P',1,1,1,0.5574412338,0.1832220731,0.0,0.0,0.0,0.0,1
113,' C',1,1,1,1.6723237014,0.5496662194,0.0,0.0,0.0,0.0,1
113,' I',1,1,1,7.8041772731,2.5651090237,0.0,0.0,0.0,0.0,1
113,' P',1,1,1,1.6723237014,0.5496662194,0.0,0.0,0.0,0.0,1
114,' C',1,1,1,0.5574412338,0.1832220731,0.0,0.0,0.0,0.0,1
114,' I',1,1,1,2.6013924244,0.8550363412,0.0,0.0,0.0,0.0,1
114,' P',1,1,1,0.5574412338,0.1832220731,0.0,0.0,0.0,0.0,1
115,' C',1,1,1,0.5574412338,0.1832220731,0.0,0.0,0.0,0.0,1
115,' I',1,1,1,2.6013924244,0.8550363412,0.0,0.0,0.0,0.0,1
115,' P',1,1,1,0.5574412338,0.1832220731,0.0,0.0,0.0,0.0,1
116,' C',1,1,1,0.5574412338,0.1832220731,0.0,0.0,0.0,0.0,1
116,' I',1,1,1,2.6013924244,0.8550363412,0.0,0.0,0.0,0.0,1
116,' P',1,1,1,0.5574412338,0.1832220731,0.0,0.0,0.0,0.0,1
117,' C',1,1,1,1.6723237014,0.5496662194,0.0,0.0,0.0,0.0,1
117,' I',1,1,1,7.8041772731,2.5651090237,0.0,0.0,0.0,0.0,1
117,' P',1,1,1,1.6723237014,0.5496662194,0.0,0.0,0.0,0.0,1
118,' C',1,1,1,0.5574412338,0.1832220731,0.0,0.0,0.0,0.0,1
118,' I',1,1,1,2.6013924244,0.8550363412,0.0,0.0,0.0,0.0,1
118,' P',1,1,1,0.5574412338,0.1832220731,0.0,0.0,0.0,0.0,1
119,' C',1,1,1,0.5574412338,0.1832220731,0.0,0.0,0.0,0.0,1
119,' I',1,1,1,2.6013924244,0.8550363412,0.0,0.0,0.0,0.0,1
119,' P',1,1,1,0.5574412338,0.1832220731,0.0,0.0,0.0,0.0,1
120,' C',1,1,1,1.6723237014,0.5496662194,0.0,0.0,0.0,0.0,1
120,' I',1,1,1,7.8041772731,2.5651090237,0.0,0.0,0.0,0.0,1
120,' P',1,1,1,1.6723237014,0.5496662194,0.0,0.0,0.0,0.0,1
121,' C',1,1,1,1.6723237014,0.5496662194,0.0,0.0,0.0,0.0,1
121,' I',1,1,1,7.8041772731,2.5651090237,0.0,0.0,0.0,0.0,1
121,' P',1,1,1,1.6723237014,0.5496662194,0.0,0.0,0.0,0.0,1
122,' C',1,1,1,1.6723237014,0.5496662194,0.0,0.0,0.0,0.0,1
122,' I',1,1,1,7.8041772731,2.5651090237,0.0,0.0,0.0,0.0,1
122,' P',1,1,1,1.6723237014,0.5496662194,0.0,0.0,0.0,0.0,1
123,' C',1,1,1,0.5574412338,0.1832220731,0.0,0.0,0.0,0.0,1
123,' I',1,1,1,2.6013924244,0.8550363412,0.0,0.0,0.0,0.0,1
123,' P',1,1,1,0.5574412338,0.1832220731,0.0,0.0,0.0,0.0,1
124,' C',1,1,1,0.5574412338,0.1832220731,0.0,0.0,0.0,0.0,1
124,' I',1,1,1,2.6013924244,0.8550363412,0.0,0.0,0.0,0.0,1
124,' P',1,1,1,0.5574412338,0.1832220731,0.0,0.0,0.0,0.0,1
125,' C',1,1,1,0.5574412338,0.1832220731,0.0,0.0,0.0,0.0,1
125,' I',1,1,1,2.6013924244,0.8550363412,0.0,0.0,0.0,0.0,1
125,' P',1,1,1,0.5574412338,0.1832220731,0.0,0.0,0.0,0.0,1
126,' C',1,1,1,0.5574412338,0.1832220731,0.0,0.0,0.0,0.0,1
126,' I',1,1,1,2.6013924244,0.8550363412,0.0,0.0,0.0,0.0,1
126,' P',1,1,1,0.5574412338,0.1832220731,0.0,0.0,0.0,0.0,1
127,' C',1,1,1,0.5574412338,0.1832220731,0.0,0.0,0.0,0.0,1
127,' I',1,1,1,2.6013924244,0.8550363412,0.0,0.0,0.0,0.0,1
127,' P',1,1,1,0.5574412338,0.1832220731,0.0,0.0,0.0,0.0,1
128,' C',1,1,1,1.6723237014,0.5496662194,0.0,0.0,0.0,0.0,1
128,' I',1,1,1,7.8041772731,2.5651090237,0.0,0.0,0.0,0.0,1
...
0 / END OF LOAD DATA, BEGIN GENERATOR DATA
30,' 1',726.72219408,-183.56400451,1092.0,-1092.0,0.9923443349,0,100.0,0.0,0.0,0.0,0.0,1.0,1,100.0,1092.0,0.0,1,1.0,0,1.0,0,1.0,0,1.0
46,' 1',20.00467166,13.5746839,20.0,-20.0,1.0218592913,0,100.0,0.0,0.0,0.0,0.0,1.0,1,100.0,20.0,0.0,1,1.0,0,1.0,0,1.0,0,1.0
69,' 1',819.54164063,35.73492824,1358.0,-1358.0,1.0227485898,0,100.0,0.0,0.0,0.0,0.0,1.0,1,100.0,1358.0,0.0,1,1.0,0,1.0,0,1.0,0,1.0
93,' 1',4.9992419,-4.9751641,5.0,-5.0,1.0227483029,0,100.0,0.0,0.0,0.0,0.0,1.0,1,100.0,5.0,0.0,1,1.0,0,1.0,0,1.0,0,1.0
97,' 1',0.00723522,-10.99576154,11.0,-11.0,1.017332586,0,100.0,0.0,0.0,0.0,0.0,1.0,1,100.0,11.0,0.0,1,1.0,0,1.0,0,1.0,0,1.0
273,' 1',0.00479914,-8.99188002,9.0,-9.0,1.0074795135,0,100.0,0.0,0.0,0.0,0.0,1.0,1,100.0,9.0,0.0,1,1.0,0,1.0,0,1.0,0,1.0
280,' 1',10.35294534,-2.64157951,18.0,-18.0,0.9976959393,0,100.0,0.0,0.0,0.0,0.0,1.0,1,100.0,18.0,0.0,1,1.0,0,1.0,0,1.0,0,1.0
352,' 1',0.3294468,378.44761631,454.0,-454.0,1.0074797291,0,100.0,0.0,0.0,0.0,0.0,1.0,1,100.0,454.0,0.0,1,1.0,0,1.0,0,1.0,0,1.0
361,' 1',0.02537828,32.97461037,33.0,-33.0,1.007479524,0,100.0,0.0,0.0,0.0,0.0,1.0,1,100.0,33.0,0.0,1,1.0,0,1.0,0,1.0,0,1.0
369,' 1',639.97633023,639.90592879,640.0,-640.0,1.0074903253,0,100.0,0.0,0.0,0.0,0.0,1.0,1,100.0,640.0,0.0,1,1.0,0,1.0,0,1.0,0,1.0
379,' 1',131.34249041,150.43956114,193.0,-193.0,1.0173327984,0,100.0,0.0,0.0,0.0,0.0,1.0,1,100.0,193.0,0.0,1,1.0,0,1.0,0,1.0,0,1.0
389,' 1',458.15215736,-599.89984431,600.0,-600.0,1.0074775328,0,100.0,0.0,0.0,0.0,0.0,1.0,1,100.0,600.0,0.0,1,1.0,0,1.0,0,1.0,0,1.0
0 / END OF GENERATOR DATA, BEGIN BRANCH DATA
1,4,' 1',0.0365020007,0.2217726598,0.0822860313,227.0,272.4,326.88,0.0,0.0,0.0,0.0,1,1.0,0,1.0,0,1.0,0,1.0,0,1.0
2,3,' 1',0.008299945,0.0504273971,0.0187104686,227.0,272.4,326.88,0.0,0.0,0.0,0.0,1,1.0,0,1.0,0,1.0,0,1.0,0,1.0
2,8,' 1',0.006942542,0.0421803179,0.0156504908,227.0,272.4,326.88,0.0,0.0,0.0,0.0,1,1.0,0,1.0,0,1.0,0,1.0,0,1.0
2,8,'1A',0.006942542,0.0421803179,0.0156504908,227.0,272.4,326.88,0.0,0.0,0.0,0.0,1,1.0,0,1.0,0,1.0,0,1.0,0,1.0
2,25,' 1',0.0055727969,0.0338582537,0.0125626907,227.0,272.4,326.88,0.0,0.0,0.0,0.0,1,1.0,0,1.0,0,1.0,0,1.0,0,1.0
2,40,' 1',0.0043206717,0.0262508037,0.0097400394,227.0,272.4,326.88,0.0,0.0,0.0,0.0,1,1.0,0,1.0,0,1.0,0,1.0,0,1.0
2,40,'1A',0.0044347775,0.0269440681,0.0099972667,227.0,272.4,326.88,0.0,0.0,0.0,0.0,1,1.0,0,1.0,0,1.0,0,1.0,0,1.0
2,40,'1B',0.0044347775,0.0269440681,0.0099972667,227.0,272.4,326.88,0.0,0.0,0.0,0.0,1,1.0,0,1.0,0,1.0,0,1.0,0,1.0
2,49,' 1',0.010046956,0.0610415899,0.0226487349,227.0,272.4,326.88,0.0,0.0,0.0,0.0,1,1.0,0,1.0,0,1.0,0,1.0,0,1.0
3,36,' 1',0.0085378732,0.051872961,0.0192468273,227.0,272.4,326.88,0.0,0.0,0.0,0.0,1,1.0,0,1.0,0,1.0,0,1.0,0,1.0
4,5,' 1',0.0129466388,0.0786589905,0.0291854558,227.0,272.4,326.88,0.0,0.0,0.0,0.0,1,1.0,0,1.0,0,1.0,0,1.0,0,1.0
4,15,' 1',0.0141663657,0.0860696002,0.0319350718,227.0,272.4,326.88,0.0,0.0,0.0,0.0,1,1.0,0,1.0,0,1.0,0,1.0,0,1.0
5,6,' 1',0.0090684113,0.0550963138,0.020442813,227.0,272.4,326.88,0.0,0.0,0.0,0.0,1,1.0,0,1.0,0,1.0,0,1.0,0,1.0
5,15,' 1',0.0115174447,0.0699757355,0.0259636403,227.0,272.4,326.88,0.0,0.0,0.0,0.0,1,1.0,0,1.0,0,1.0,0,1.0,0,1.0
6,7,' 1',0.0065126072,0.0395681932,0.0146812938,227.0,272.4,326.88,0.0,0.0,0.0,0.0,1,1.0,0,1.0,0,1.0,0,1.0,0,1.0
7,12,' 1',0.0158646859,0.0963879658,0.0357635751,227.0,272.4,326.88,0.0,0.0,0.0,0.0,1,1.0,0,1.0,0,1.0,0,1.0,0,1.0
8,28,' 1',0.0044711104,0.0271648135,0.0100791716,227.0,272.4,326.88,0.0,0.0,0.0,0.0,1,1.0,0,1.0,0,1.0,0,1.0,0,1.0
8,44,' 1',0.0227951693,0.13849502,0.0513868823,227.0,272.4,326.88,0.0,0.0,0.0,0.0,1,1.0,0,1.0,0,1.0,0,1.0,0,1.0
9,8,' 1',0.0086627764,0.0526318261,0.019528395,227.0,272.4,326.88,0.0,0.0,0.0,0.0,1,1.0,0,1.0,0,1.0,0,1.0,0,1.0
9,8,'1A',0.0086361048,0.0524697796,0.0194682696,227.0,272.4,326.88,0.0,0.0,0.0,0.0,1,1.0,0,1.0,0,1.0,0,1.0,0,1.0
9,21,' 1',0.0047635568,0.0289416096,0.0107384301,227.0,272.4,326.88,0.0,0.0,0.0,0.0,1,1.0,0,1.0,0,1.0,0,1.0,0,1.0
10,9,' 1',0.0181638859,0.1103570548,0.0409466346,227.0,272.4,326.88,0.0,0.0,0.0,0.0,1,1.0,0,1.0,0,1.0,0,1.0,0,1.0
10,37,' 1',0.0072655544,0.0441428219,0.0163786538,227.0,272.4,326.88,0.0,0.0,0.0,0.0,1,1.0,0,1.0,0,1.0,0,1.0,0,1.0
11,14,' 1',0.0080700812,0.0490308297,0.0181922893,227.0,272.4,326.88,0.0,0.0,0.0,0.0,1,1.0,0,1.0,0,1.0,0,1.0,0,1.0
11,14,'1A',0.0080479987,0.0488966643,0.0181425089,227.0,272.4,326.88,0.0,0.0,0.0,0.0,1,1.0,0,1.0,0,1.0,0,1.0,0,1.0
12,16,' 1',0.0083615177,0.0508014901,0.0188492712,227.0,272.4,326.88,0.0,0.0,0.0,0.0,1,1.0,0,1.0,0,1.0,0,1.0,0,1.0
13,16,' 1',0.0215172187,0.1307306649,0.0485060133,227.0,272.4,326.88,0.0,0.0,0.0,0.0,1,1.0,0,1.0,0,1.0,0,1.0,0,1.0
14,13,' 1',0.0145311087,0.0882856438,0.0327573077,227.0,272.4,326.88,0.0,0.0,0.0,0.0,1,1.0,0,1.0,0,1.0,0,1.0,0,1.0
14,30,' 1',0.0302570295,0.1838305238,0.0682080661,227.0,272.4,326.88,0.0,0.0,0.0,0.0,1,1.0,0,1.0,0,1.0,0,1.0,0,1.0
14,34,' 1',0.0479096152,0.2910811073,0.1080020826,227.0,272.4,326.88,0.0,0.0,0.0,0.0,1,1.0,0,1.0,0,1.0,0,1.0,0,1.0
15,45,' 1',0.0124908185,0.0758895949,0.0281579054,227.0,272.4,326.88,0.0,0.0,0.0,0.0,1,1.0,0,1.0,0,1.0,0,1.0,0,1.0
16,1,' 1',0.0239117357,0.1452788647,0.0539039448,227.0,272.4,326.88,0.0,0.0,0.0,0.0,1,1.0,0,1.0,0,1.0,0,1.0,0,1.0
16,19,' 1',0.0000396811,0.0002410877,0.0000894526,227.0,272.4,326.88,0.0,0.0,0.0,0.0,1,1.0,0,1.0,0,1.0,0,1.0,0,1.0
16,45,' 1',0.0080603624,0.0489717815,0.0181703802,227.0,272.4,326.88,0.0,0.0,0.0,0.0,1,1.0,0,1.0,0,1.0,0,1.0,0,1.0
16,46,' 1',0.0042345135,0.0257273385,0.0095458141,227.0,272.4,326.88,0.0,0.0,0.0,0.0,1,1.0,0,1.0,0,1.0,0,1.0,0,1.0
17,8,' 1',0.0075449988,0.0458406228,0.0170086021,227.0,272.4,326.88,0.0,0.0,0.0,0.0,1,1.0,0,1.0,0,1.0,0,1.0,0,1.0
18,17,' 1',0.0184992192,0.1123944158,0.0417025725,227.0,272.4,326.88,0.0,0.0,0.0,0.0,1,1.0,0,1.0,0,1.0,0,1.0,0,1.0
19,18,' 1',0.0138045533,0.0838713616,0.0311194423,227.0,272.4,326.88,0.0,0.0,0.0,0.0,1,1.0,0,1.0,0,1.0,0,1.0,0,1.0
20,8,' 1',0.0069659597,0.0423225956,0.0157032811,227.0,272.4,326.88,0.0,0.0,0.0,0.0,1,1.0,0,1.0,0,1.0,0,1.0,0,1.0
20,47,' 1',0.0092612019,0.0562676387,0.0208774187,227.0,272.4,326.88,0.0,0.0,0.0,0.0,1,1.0,0,1.0,0,1.0,0,1.0,0,1.0
21,8,' 1',0.0102123016,0.0620461688,0.0230214716,227.0,272.4,326.88,0.0,0.0,0.0,0.0,1,1.0,0,1.0,0,1.0,0,1.0,0,1.0
22,8,' 1',0.0052289057,0.0317688976,0.0117874607,227.0,272.4,326.88,0.0,0.0,0.0,0.0,1,1.0,0,1.0,0,1.0,0,1.0,0,1.0
22,26,' 1',0.0013123328,0.0079732488,0.0029583764,227.0,272.4,326.88,0.0,0.0,0.0,0.0,1,1.0,0,1.0,0,1.0,0,1.0,0,1.0
23,22,' 1',0.0014714331,0.0089398837,0.0033170345,227.0,272.4,326.88,0.0,0.0,0.0,0.0,1,1.0,0,1.0,0,1.0,0,1.0,0,1.0
24,32,' 1',0.0022347215,0.0135773414,0.0050377064,227.0,272.4,326.88,0.0,0.0,0.0,0.0,1,1.0,0,1.0,0,1.0,0,1.0,0,1.0
25,22,' 1',0.0019131759,0.0116237497,0.0043128501,227.0,272.4,326.88,0.0,0.0,0.0,0.0,1,1.0,0,1.0,0,1.0,0,1.0,0,1.0
25,26,' 1',0.0033731781,0.0204941827,0.0076041157,227.0,272.4,326.88,0.0,0.0,0.0,0.0,1,1.0,0,1.0,0,1.0,0,1.0,0,1.0
26,20,' 1',0.0074581979,0.0453132528,0.0168129279,227.0,272.4,326.88,0.0,0.0,0.0,0.0,1,1.0,0,1.0,0,1.0,0,1.0,0,1.0
27,44,' 1',0.0079287048,0.0481718787,0.0178735861,227.0,272.4,326.88,0.0,0.0,0.0,0.0,1,1.0,0,1.0,0,1.0,0,1.0,0,1.0
28,29,' 1',0.0238645517,0.144992192,0.0537975784,227.0,272.4,326.88,0.0,0.0,0.0,0.0,1,1.0,0,1.0,0,1.0,0,1.0,0,1.0
29,27,' 1',0.0095251464,0.0578712679,0.0214724257,227.0,272.4,326.88,0.0,0.0,0.0,0.0,1,1.0,0,1.0,0,1.0,0,1.0,0,1.0
30,10,' 1',0.010225787,0.0621281011,0.0230518716,227.0,272.4,326.88,0.0,0.0,0.0,0.0,1,1.0,0,1.0,0,1.0,0,1.0,0,1.0
30,31,' 1',0.0241998849,0.147029553,0.0545535163,227.0,272.4,326.88,0.0,0.0,0.0,0.0,1,1.0,0,1.0,0,1.0,0,1.0,0,1.0
30,407,' 1',0.0,0.001,0.0,47.77,57.324,68.7888,0.0,0.0,0.0,0.0,1,1.0,0,1.0,0,1.0,0,1.0,0,1.0
31,48,' 1',0.0043034437,0.026146133,0.0097012027,227.0,272.4,326.88,0.0,0.0,0.0,0.0,1,1.0,0,1.0,0,1.0,0,1.0,0,1.0
32,33,' 1',0.0023473329,0.0142615271,0.0052915651,227.0,272.4,326.88,0.0,0.0,0.0,0.0,1,1.0,0,1.0,0,1.0,0,1.0,0,1.0
32,48,' 1',0.0042801965,0.0260048911,0.0096487966,227.0,272.4,326.88,0.0,0.0,0.0,0.0,1,1.0,0,1.0,0,1.0,0,1.0,0,1.0
33,44,' 1',0.008830443,0.0536505066,0.0199063639,227.0,272.4,326.88,0.0,0.0,0.0,0.0,1,1.0,0,1.0,0,1.0,0,1.0,0,1.0
35,12,' 1',0.0168058492,0.1021061257,0.0378852284,227.0,272.4,326.88,0.0,0.0,0.0,0.0,1,1.0,0,1.0,0,1.0,0,1.0,0,1.0
36,35,' 1',0.0044188555,0.026847332,0.009961374,227.0,272.4,326.88,0.0,0.0,0.0,0.0,1,1.0,0,1.0,0,1.0,0,1.0,0,1.0
37,38,' 1',0.0062595545,0.0380307389,0.0141108402,227.0,272.4,326.88,0.0,0.0,0.0,0.0,1,1.0,0,1.0,0,1.0,0,1.0,0,1.0
37,38,'1A',0.0079376186,0.0482260355,0.0178936803,227.0,272.4,326.88,0.0,0.0,0.0,0.0,1,1.0,0,1.0,0,1.0,0,1.0,0,1.0
37,43,' 1',0.0022514047,0.0136787026,0.0050753152,227.0,272.4,326.88,0.0,0.0,0.0,0.0,1,1.0,0,1.0,0,1.0,0,1.0,0,1.0
37,50,' 1',0.0027329662,0.0166044922,0.0061608936,227.0,272.4,326.88,0.0,0.0,0.0,0.0,1,1.0,0,1.0,0,1.0,0,1.0,0,1.0
38,21,' 1',0.011700818,0.0710898438,0.0263770165,227.0,272.4,326.88,0.0,0.0,0.0,0.0,1,1.0,0,1.0,0,1.0,0,1.0,0,1.0
39,9,' 1',0.0267148845,0.1623097606,0.0602230503,227.0,272.4,326.88,0.0,0.0,0.0,0.0,1,1.0,0,1.0,0,1.0,0,1.0,0,1.0
40,25,' 1',0.0039980459,0.0242906484,0.0090127478,227.0,272.4,326.88,0.0,0.0,0.0,0.0,1,1.0,0,1.0,0,1.0,0,1.0,0,1.0
41,42,' 1',0.0073566191,0.0446960974,0.01658394,227.0,272.4,326.88,0.0,0.0,0.0,0.0,1,1.0,0,1.0,0,1.0,0,1.0,0,1.0
41,49,' 1',0.0009049032,0.0054978572,0.0020399126,227.0,272.4,326.88,0.0,0.0,0.0,0.0,1,1.0,0,1.0,0,1.0,0,1.0,0,1.0
42,38,' 1',0.0036470445,0.0221580938,0.0082214895,227.0,272.4,326.88,0.0,0.0,0.0,0.0,1,1.0,0,1.0,0,1.0,0,1.0,0,1.0
43,10,' 1',0.0039904743,0.0242446463,0.0089956793,227.0,272.4,326.88,0.0,0.0,0.0,0.0,1,1.0,0,1.0,0,1.0,0,1.0,0,1.0
43,50,' 1',0.0001986914,0.0012071754,0.0004479077,227.0,272.4,326.88,0.0,0.0,0.0,0.0,1,1.0,0,1.0,0,1.0,0,1.0,0,1.0
51,52,' 1',0.0051127007,0.0397256847,0.2037708609,454.0,544.8,653.76,0.0,0.0,0.0,0.0,1,1.0,0,1.0,0,1.0,0,1.0,0,1.0
51,53,' 1',0.0038199758,0.0296812119,0.1522482533,454.0,544.8,653.76,0.0,0.0,0.0,0.0,1,1.0,0,1.0,0,1.0,0,1.0,0,1.0
52,57,' 1',0.0078967222,0.0613575312,0.3147303078,454.0,544.8,653.76,0.0,0.0,0.0,0.0,1,1.0,0,1.0,0,1.0,0,1.0,0,1.0
52,57,'1A',0.0078967222,0.0613575312,0.3147303078,454.0,544.8,653.76,0.0,0.0,0.0,0.0,1,1.0,0,1.0,0,1.0,0,1.0,0,1.0
54,51,' 1',0.0023613732,0.0183478694,0.0941144548,454.0,544.8,653.76,0.0,0.0,0.0,0.0,1,1.0,0,1.0,0,1.0,0,1.0,0,1.0
55,53,' 1',0.0050489502,0.0392303434,0.2012300331,454.0,544.8,653.76,0.0,0.0,0.0,0.0,1,1.0,0,1.0,0,1.0,0,1.0,0,1.0
57,58,' 1',0.0071648308,0.0556707349,0.285560178,454.0,544.8,653.76,0.0,0.0,0.0,0.0,1,1.0,0,1.0,0,1.0,0,1.0,0,1.0
57,59,' 1',0.0079566818,0.0618234178,0.3171200492,454.0,544.8,653.76,0.0,0.0,0.0,0.0,1,1.0,0,1.0,0,1.0,0,1.0,0,1.0
58,54,' 1',0.0060254918,0.0468180715,0.2401508952,454.0,544.8,653.76,0.0,0.0,0.0,0.0,1,1.0,0,1.0,0,1.0,0,1.0,0,1.0
61,51,' 1',0.0030417949,0.0236347466,0.1212332196,454.0,544.8,653.76,0.0,0.0,0.0,0.0,1,1.0,0,1.0,0,1.0,0,1.0,0,1.0
61,53,' 1',0.0068725267,0.0533995327,0.2739101629,454.0,544.8,653.76,0.0,0.0,0.0,0.0,1,1.0,0,1.0,0,1.0,0,1.0,0,1.0
61,60,' 1',0.00419075,0.0325621275,0.1670257618,454.0,544.8,653.76,0.0,0.0,0.0,0.0,1,1.0,0,1.0,0,1.0,0,1.0,0,1.0
63,70,' 1',0.0,0.000001,0.0,47.77,57.324,68.7888,0.0,0.0,0.0,0.0,1,1.0,0,1.0,0,1.0,0,1.0,0,1.0
63,98,' 1',0.0,0.000001,0.0,47.77,57.324,68.7888,0.0,0.0,0.0,0.0,1,1.0,0,1.0,0,1.0,0,1.0,0,1.0
64,100,' 1',0.3686170311,0.000001,0.0,47.77,57.324,68.7888,0.0,0.0,0.0,0.0,1,1.0,0,1.0,0,1.0,0,1.0,0,1.0
64,101,' 1',0.0,0.000001,0.0,47.77,57.324,68.7888,0.0,0.0,0.0,0.0,1,1.0,0,1.0,0,1.0,0,1.0,0,1.0
64,123,' 1',0.0916580949,0.000001,0.0,47.77,57.324,68.7888,0.0,0.0,0.0,0.0,1,1.0,0,1.0,0,1.0,0,1.0,0,1.0
64,159,' 1',0.0,0.000001,0.0,47.77,57.324,68.7888,0.0,0.0,0.0,0.0,1,1.0,0,1.0,0,1.0,0,1.0,0,1.0
64,187,' 1',0.0,0.000001,0.0,47.77,57.324,68.7888,0.0,0.0,0.0,0.0,1,1.0,0,1.0,0,1.0,0,1.0,0,1.0
64,251,' 1',0.0,0.000001,0.0,47.77,57.324,68.7888,0.0,0.0,0.0,0.0,1,1.0,0,1.0,0,1.0,0,1.0,0,1.0
65,87,' 1',0.0,0.000001,0.0,47.77,57.324,68.7888,0.0,0.0,0.0,0.0,1,1.0,0,1.0,0,1.0,0,1.0,0,1.0
65,114,' 1',0.0,0.000001,0.0,47.77,57.324,68.7888,0.0,0.0,0.0,0.0,1,1.0,0,1.0,0,1.0,0,1.0,0,1.0
65,115,' 1',0.0,0.000001,0.0,47.77,57.324,68.7888,0.0,0.0,0.0,0.0,1,1.0,0,1.0,0,1.0,0,1.0,0,1.0
65,116,' 1',0.0,0.000001,0.0,47.77,57.324,68.7888,0.0,0.0,0.0,0.0,1,1.0,0,1.0,0,1.0,0,1.0,0,1.0
65,117,' 1',0.0,0.000001,0.0,47.77,57.324,68.7888,0.0,0.0,0.0,0.0,1,1.0,0,1.0,0,1.0,0,1.0,0,1.0
65,118,' 1',0.0,0.000001,0.0,47.77,57.324,68.7888,0.0,0.0,0.0,0.0,1,1.0,0,1.0,0,1.0,0,1.0,0,1.0
65,147,' 1',0.0,0.000001,0.0,47.77,57.324,68.7888,0.0,0.0,0.0,0.0,1,1.0,0,1.0,0,1.0,0,1.0,0,1.0
65,157,' 1',0.0,0.000001,0.0,47.77,57.324,68.7888,0.0,0.0,0.0,0.0,1,1.0,0,1.0,0,1.0,0,1.0,0,1.0
65,158,' 1',0.0,0.000001,0.0,47.77,57.324,68.7888,0.0,0.0,0.0,0.0,1,1.0,0,1.0,0,1.0,0,1.0,0,1.0
65,160,' 1',0.0,0.000001,0.0,47.77,57.324,68.7888,0.0,0.0,0.0,0.0,1,1.0,0,1.0,0,1.0,0,1.0,0,1.0
65,192,' 1',0.0,0.000001,0.0,47.77,57.324,68.7888,0.0,0.0,0.0,0.0,1,1.0,0,1.0,0,1.0,0,1.0,0,1.0
65,201,' 1',0.0,0.000001,0.0,47.77,57.324,68.7888,0.0,0.0,0.0,0.0,1,1.0,0,1.0,0,1.0,0,1.0,0,1.0
65,206,' 1',0.0,0.000001,0.0,47.77,57.324,68.7888,0.0,0.0,0.0,0.0,1,1.0,0,1.0,0,1.0,0,1.0,0,1.0
65,211,' 1',0.0,0.000001,0.0,47.77,57.324,68.7888,0.0,0.0,0.0,0.0,1,1.0,0,1.0,0,1.0,0,1.0,0,1.0
65,224,' 1',0.0,0.000001,0.0,47.77,57.324,68.7888,0.0,0.0,0.0,0.0,1,1.0,0,1.0,0,1.0,0,1.0,0,1.0
65,271,' 1',0.0,0.000001,0.0,47.77,57.324,68.7888,0.0,0.0,0.0,0.0,1,1.0,0,1.0,0,1.0,0,1.0,0,1.0
65,273,' 1',0.0,0.000001,0.0,47.77,57.324,68.7888,0.0,0.0,0.0,0.0,1,1.0,0,1.0,0,1.0,0,1.0,0,1.0
65,279,' 1',0.0,0.000001,0.0,47.77,57.324,68.7888,0.0,0.0,0.0,0.0,1,1.0,0,1.0,0,1.0,0,1.0,0,1.0
65,292,' 1',0.0,0.000001,0.0,47.77,57.324,68.7888,0.0,0.0,0.0,0.0,1,1.0,0,1.0,0,1.0,0,1.0,0,1.0
65,295,' 1',0.0,0.000001,0.0,47.77,57.324,68.7888,0.0,0.0,0.0,0.0,1,1.0,0,1.0,0,1.0,0,1.0,0,1.0
65,297,' 1',0.0,0.000001,0.0,47.77,57.324,68.7888,0.0,0.0,0.0,0.0,1,1.0,0,1.0,0,1.0,0,1.0,0,1.0
65,298,' 1',0.0,0.000001,0.0,47.77,57.324,68.7888,0.0,0.0,0.0,0.0,1,1.0,0,1.0,0,1.0,0,1.0,0,1.0
65,336,' 1',0.0,0.000001,0.0,47.77,57.324,68.7888,0.0,0.0,0.0,0.0,1,1.0,0,1.0,0,1.0,0,1.0,0,1.0
65,341,' 1',0.0,0.000001,0.0,47.77,57.324,68.7888,0.0,0.0,0.0,0.0,1,1.0,0,1.0,0,1.0,0,1.0,0,1.0
65,350,' 1',0.0,0.000001,0.0,47.77,57.324,68.7888,0.0,0.0,0.0,0.0,1,1.0,0,1.0,0,1.0,0,1.0,0,1.0
66,164,' 1',0.0,0.000001,0.0,47.77,57.324,68.7888,0.0,0.0,0.0,0.0,1,1.0,0,1.0,0,1.0,0,1.0,0,1.0
67,118,' 1',0.0,0.000001,0.0,47.77,57.324,68.7888,0.0,0.0,0.0,0.0,1,1.0,0,1.0,0,1.0,0,1.0,0,1.0
68,69,' 1',0.0,0.000001,0.0,47.77,57.324,68.7888,0.0,0.0,0.0,0.0,1,1.0,0,1.0,0,1.0,0,1.0,0,1.0
68,93,' 1',0.0,0.000001,0.0,47.77,57.324,68.7888,0.0,0.0,0.0,0.0,1,1.0,0,1.0,0,1.0,0,1.0,0,1.0
68,333,' 1',0.0,0.000001,0.0,47.77,57.324,68.7888,0.0,0.0,0.0,0.0,1,1.0,0,1.0,0,1.0,0,1.0,0,1.0
69,408,' 1',0.0060254918,0.0468180715,0.2401508952,454.0,544.8,653.76,0.0,0.0,0.0,0.0,1,1.0,0,1.0,0,1.0,0,1.0,0,1.0
70,98,' 1',0.0,0.000001,0.0,47.77,57.324,68.7888,0.0,0.0,0.0,0.0,1,1.0,0,1.0,0,1.0,0,1.0,0,1.0
71,129,' 1',0.0,0.000001,0.0,47.77,57.324,68.7888,0.0,0.0,0.0,0.0,1,1.0,0,1.0,0,1.0,0,1.0,0,1.0
72,178,' 1',0.0,0.000001,0.0,47.77,57.324,68.7888,0.0,0.0,0.0,0.0,1,1.0,0,1.0,0,1.0,0,1.0,0,1.0
72,184,' 1',0.0,0.000001,0.0,47.77,57.324,68.7888,0.0,0.0,0.0,0.0,1,1.0,0,1.0,0,1.0,0,1.0,0,1.0
73,138,' 1',0.0,0.000001,0.0,47.77,57.324,68.7888,0.0,0.0,0.0,0.0,1,1.0,0,1.0,0,1.0,0,1.0,0,1.0
73,193,' 1',0.0,0.000001,0.0,47.77,57.324,68.7888,0.0,0.0,0.0,0.0,1,1.0,0,1.0,0,1.0,0,1.0,0,1.0
73,200,' 1',0.0,0.000001,0.0,47.77,57.324,68.7888,0.0,0.0,0.0,0.0,1,1.0,0,1.0,0,1.0,0,1.0,0,1.0
73,250,' 1',0.0,0.000001,0.0,47.77,57.324,68.7888,0.0,0.0,0.0,0.0,1,1.0,0,1.0,0,1.0,0,1.0,0,1.0
77,171,' 1',0.0,0.000001,0.0,47.77,57.324,68.7888,0.0,0.0,0.0,0.0,1,1.0,0,1.0,0,1.0,0,1.0,0,1.0
77,204,' 1',0.0,0.000001,0.0,47.77,57.324,68.7888,0.0,0.0,0.0,0.0,1,1.0,0,1.0,0,1.0,0,1.0,0,1.0
77,217,' 1',0.0,0.000001,0.0,47.77,57.324,68.7888,0.0,0.0,0.0,0.0,1,1.0,0,1.0,0,1.0,0,1.0,0,1.0
77,218,' 1',0.0,0.000001,0.0,47.77,57.324,68.7888,0.0,0.0,0.0,0.0,1,1.0,0,1.0,0,1.0,0,1.0,0,1.0
77,238,' 1',0.0,0.000001,0.0,47.77,57.324,68.7888,0.0,0.0,0.0,0.0,1,1.0,0,1.0,0,1.0,0,1.0,0,1.0
77,239,' 1',0.0,0.000001,0.0,47.77,57.324,68.7888,0.0,0.0,0.0,0.0,1,1.0,0,1.0,0,1.0,0,1.0,0,1.0
77,240,' 1',0.0,0.000001,0.0,47.77,57.324,68.7888,0.0,0.0,0.0,0.0,1,1.0,0,1.0,0,1.0,0,1.0,0,1.0
79,68,' 1',0.0,0.000001,0.0,47.77,57.324,68.7888,0.0,0.0,0.0,0.0,1,1.0,0,1.0,0,1.0,0,1.0,0,1.0
79,69,' 1',0.000001,0.000001,0.0,47.77,57.324,68.7888,0.0,0.0,0.0,0.0,1,1.0,0,1.0,0,1.0,0,1.0,0,1.0
79,93,' 1',0.0,0.000001,0.0,47.77,57.324,68.7888,0.0,0.0,0.0,0.0,1,1.0,0,1.0,0,1.0,0,1.0,0,1.0
79,333,' 1',0.0,0.000001,0.0,47.77,57.324,68.7888,0.0,0.0,0.0,0.0,1,1.0,0,1.0,0,1.0,0,1.0,0,1.0
80,119,' 1',0.0,0.000001,0.0,47.77,57.324,68.7888,0.0,0.0,0.0,0.0,1,1.0,0,1.0,0,1.0,0,1.0,0,1.0
80,120,' 1',0.0,0.000001,0.0,47.77,57.324,68.7888,0.0,0.0,0.0,0.0,1,1.0,0,1.0,0,1.0,0,1.0,0,1.0
80,191,' 1',0.0,0.000001,0.0,47.77,57.324,68.7888,0.0,0.0,0.0,0.0,1,1.0,0,1.0,0,1.0,0,1.0,0,1.0
80,221,' 1',0.0,0.000001,0.0,47.77,57.324,68.7888,0.0,0.0,0.0,0.0,1,1.0,0,1.0,0,1.0,0,1.0,0,1.0
81,122,' 1',0.0,0.000001,0.0,47.77,57.324,68.7888,0.0,0.0,0.0,0.0,1,1.0,0,1.0,0,1.0,0,1.0,0,1.0
81,125,' 1',0.0,0.000001,0.0,47.77,57.324,68.7888,0.0,0.0,0.0,0.0,1,1.0,0,1.0,0,1.0,0,1.0,0,1.0
81,127,' 1',0.0,0.000001,0.0,47.77,57.324,68.7888,0.0,0.0,0.0,0.0,1,1.0,0,1.0,0,1.0,0,1.0,0,1.0
81,131,' 1',0.0,0.000001,0.0,47.77,57.324,68.7888,0.0,0.0,0.0,0.0,1,1.0,0,1.0,0,1.0,0,1.0,0,1.0
81,160,' 1',0.0,0.000001,0.0,47.77,57.324,68.7888,0.0,0.0,0.0,0.0,1,1.0,0,1.0,0,1.0,0,1.0,0,1.0
81,170,' 1',0.0,0.000001,0.0,47.77,57.324,68.7888,0.0,0.0,0.0,0.0,1,1.0,0,1.0,0,1.0,0,1.0,0,1.0
82,91,' 1',0.0,0.000001,0.0,47.77,57.324,68.7888,0.0,0.0,0.0,0.0,1,1.0,0,1.0,0,1.0,0,1.0,0,1.0
83,64,' 1',0.0,0.000001,0.0,47.77,57.324,68.7888,0.0,0.0,0.0,0.0,1,1.0,0,1.0,0,1.0,0,1.0,0,1.0
83,100,' 1',0.0,0.000001,0.0,47.77,57.324,68.7888,0.0,0.0,0.0,0.0,1,1.0,0,1.0,0,1.0,0,1.0,0,1.0
83,101,' 1',0.0,0.000001,0.0,47.77,57.324,68.7888,0.0,0.0,0.0,0.0,1,1.0,0,1.0,0,1.0,0,1.0,0,1.0
83,123,' 1',0.0,0.000001,0.0,47.77,57.324,68.7888,0.0,0.0,0.0,0.0,1,1.0,0,1.0,0,1.0,0,1.0,0,1.0
83,159,' 1',0.0,0.000001,0.0,47.77,57.324,68.7888,0.0,0.0,0.0,0.0,1,1.0,0,1.0,0,1.0,0,1.0,0,1.0
83,187,' 1',0.0,0.000001,0.0,47.77,57.324,68.7888,0.0,0.0,0.0,0.0,1,1.0,0,1.0,0,1.0,0,1.0,0,1.0
83,251,' 1',0.0,0.000001,0.0,47.77,57.324,68.7888,0.0,0.0,0.0,0.0,1,1.0,0,1.0,0,1.0,0,1.0,0,1.0
83,267,' 1',0.0,0.000001,0.0,47.77,57.324,68.7888,0.0,0.0,0.0,0.0,1,1.0,0,1.0,0,1.0,0,1.0,0,1.0
83,272,' 1',0.7135032916,0.000001,0.0,47.77,57.324,68.7888,0.0,0.0,0.0,0.0,1,1.0,0,1.0,0,1.0,0,1.0,0,1.0
84,71,' 1',0.0,0.000001,0.0,47.77,57.324,68.7888,0.0,0.0,0.0,0.0,1,1.0,0,1.0,0,1.0,0,1.0,0,1.0
84,129,' 1',0.0,0.000001,0.0,47.77,57.324,68.7888,0.0,0.0,0.0,0.0,1,1.0,0,1.0,0,1.0,0,1.0,0,1.0
84,133,' 1',0.0,0.000001,0.0,47.77,57.324,68.7888,0.0,0.0,0.0,0.0,1,1.0,0,1.0,0,1.0,0,1.0,0,1.0
84,146,' 1',0.0,0.000001,0.0,47.77,57.324,68.7888,0.0,0.0,0.0,0.0,1,1.0,0,1.0,0,1.0,0,1.0,0,1.0
84,148,' 1',0.0,0.000001,0.0,47.77,57.324,68.7888,0.0,0.0,0.0,0.0,1,1.0,0,1.0,0,1.0,0,1.0,0,1.0
84,149,' 1',0.0,0.000001,0.0,47.77,57.324,68.7888,0.0,0.0,0.0,0.0,1,1.0,0,1.0,0,1.0,0,1.0,0,1.0
84,154,' 1',0.0,0.000001,0.0,47.77,57.324,68.7888,0.0,0.0,0.0,0.0,1,1.0,0,1.0,0,1.0,0,1.0,0,1.0
85,71,' 1',0.0,0.000001,0.0,47.77,57.324,68.7888,0.0,0.0,0.0,0.0,1,1.0,0,1.0,0,1.0,0,1.0,0,1.0
85,84,' 1',0.0,0.000001,0.0,47.77,57.324,68.7888,0.0,0.0,0.0,0.0,1,1.0,0,1.0,0,1.0,0,1.0,0,1.0
85,129,' 1',0.0,0.000001,0.0,47.77,57.324,68.7888,0.0,0.0,0.0,0.0,1,1.0,0,1.0,0,1.0,0,1.0,0,1.0
85,133,' 1',0.0,0.000001,0.0,47.77,57.324,68.7888,0.0,0.0,0.0,0.0,1,1.0,0,1.0,0,1.0,0,1.0,0,1.0
85,146,' 1',0.0,0.000001,0.0,47.77,57.324,68.7888,0.0,0.0,0.0,0.0,1,1.0,0,1.0,0,1.0,0,1.0,0,1.0
85,148,' 1',0.6911238265,0.000001,0.0,47.77,57.324,68.7888,0.0,0.0,0.0,0.0,1,1.0,0,1.0,0,1.0,0,1.0,0,1.0
85,149,' 1',0.0,0.000001,0.0,47.77,57.324,68.7888,0.0,0.0,0.0,0.0,1,1.0,0,1.0,0,1.0,0,1.0,0,1.0
85,154,' 1',0.0,0.000001,0.0,47.77,57.324,68.7888,0.0,0.0,0.0,0.0,1,1.0,0,1.0,0,1.0,0,1.0,0,1.0
86,213,' 1',0.0000008333,0.000001,0.0,47.77,57.324,68.7888,0.0,0.0,0.0,0.0,1,1.0,0,1.0,0,1.0,0,1.0,0,1.0
87,114,' 1',0.0,0.000001,0.0,47.77,57.324,68.7888,0.0,0.0,0.0,0.0,1,1.0,0,1.0,0,1.0,0,1.0,0,1.0
87,115,' 1',0.0,0.000001,0.0,47.77,57.324,68.7888,0.0,0.0,0.0,0.0,1,1.0,0,1.0,0,1.0,0,1.0,0,1.0
87,116,' 1',0.0,0.000001,0.0,47.77,57.324,68.7888,0.0,0.0,0.0,0.0,1,1.0,0,1.0,0,1.0,0,1.0,0,1.0
87,117,' 1',0.0,0.000001,0.0,47.77,57.324,68.7888,0.0,0.0,0.0,0.0,1,1.0,0,1.0,0,1.0,0,1.0,0,1.0
87,118,' 1',0.0,0.000001,0.0,47.77,57.324,68.7888,0.0,0.0,0.0,0.0,1,1.0,0,1.0,0,1.0,0,1.0,0,1.0
88,214,' 1',0.0,0.000001,0.0,47.77,57.324,68.7888,0.0,0.0,0.0,0.0,1,1.0,0,1.0,0,1.0,0,1.0,0,1.0
89,65,' 1',0.0,0.000001,0.0,47.77,57.324,68.7888,0.0,0.0,0.0,0.0,1,1.0,0,1.0,0,1.0,0,1.0,0,1.0
89,87,' 1',0.0,0.000001,0.0,47.77,57.324,68.7888,0.0,0.0,0.0,0.0,1,1.0,0,1.0,0,1.0,0,1.0,0,1.0
89,114,' 1',0.0,0.000001,0.0,47.77,57.324,68.7888,0.0,0.0,0.0,0.0,1,1.0,0,1.0,0,1.0,0,1.0,0,1.0
89,115,' 1',0.0,0.000001,0.0,47.77,57.324,68.7888,0.0,0.0,0.0,0.0,1,1.0,0,1.0,0,1.0,0,1.0,0,1.0
89,116,' 1',0.0,0.000001,0.0,47.77,57.324,68.7888,0.0,0.0,0.0,0.0,1,1.0,0,1.0,0,1.0,0,1.0,0,1.0
89,117,' 1',0.0,0.000001,0.0,47.77,57.324,68.7888,0.0,0.0,0.0,0.0,1,1.0,0,1.0,0,1.0,0,1.0,0,1.0
89,118,' 1',0.0,0.000001,0.0,47.77,57.324,68.7888,0.0,0.0,0.0,0.0,1,1.0,0,1.0,0,1.0,0,1.0,0,1.0
89,147,' 1',0.0,0.000001,0.0,47.77,57.324,68.7888,0.0,0.0,0.0,0.0,1,1.0,0,1.0,0,1.0,0,1.0,0,1.0
89,157,' 1',0.0,0.000001,0.0,47.77,57.324,68.7888,0.0,0.0,0.0,0.0,1,1.0,0,1.0,0,1.0,0,1.0,0,1.0
89,158,' 1',0.0,0.000001,0.0,47.77,57.324,68.7888,0.0,0.0,0.0,0.0,1,1.0,0,1.0,0,1.0,0,1.0,0,1.0
89,160,' 1',0.0,0.000001,0.0,47.77,57.324,68.7888,0.0,0.0,0.0,0.0,1,1.0,0,1.0,0,1.0,0,1.0,0,1.0
89,192,' 1',0.0,0.000001,0.0,47.77,57.324,68.7888,0.0,0.0,0.0,0.0,1,1.0,0,1.0,0,1.0,0,1.0,0,1.0
89,201,' 1',0.0,0.000001,0.0,47.77,57.324,68.7888,0.0,0.0,0.0,0.0,1,1.0,0,1.0,0,1.0,0,1.0,0,1.0
89,206,' 1',0.0,0.000001,0.0,47.77,57.324,68.7888,0.0,0.0,0.0,0.0,1,1.0,0,1.0,0,1.0,0,1.0,0,1.0
89,211,' 1',0.0,0.000001,0.0,47.77,57.324,68.7888,0.0,0.0,0.0,0.0,1,1.0,0,1.0,0,1.0,0,1.0,0,1.0
89,224,' 1',0.0,0.000001,0.0,47.77,57.324,68.7888,0.0,0.0,0.0,0.0,1,1.0,0,1.0,0,1.0,0,1.0,0,1.0
...
0 / END OF BRANCH DATA, BEGIN TRANSFORMER DATA
1,69,0,' 1',1,1,1,0.0,0.0,2,'            ',1,0,1.0,0,1.0,0,1.0,0,1.0
0.0061,0.04956,100.0,
1.0,0.0,0.0,350.0,420.0,504.0,0,1,1.5,0.5,1.5,1.5,33,0,0.0,0.0
1.0,0.0
2,65,0,' 1',1,1,1,0.0,0.0,2,'            ',1,0,1.0,0,1.0,0,1.0,0,1.0
0.0061,0.04956,100.0,
1.0,0.0,0.0,350.0,420.0,504.0,0,1,1.5,0.5,1.5,1.5,33,0,0.0,0.0
1.0,0.0
3,90,0,' 1',1,1,1,0.0,0.0,2,'            ',1,0,1.0,0,1.0,0,1.0,0,1.0
0.0061,0.04956,100.0,
1.0,0.0,0.0,350.0,420.0,504.0,0,1,1.5,0.5,1.5,1.5,33,0,0.0,0.0
1.0,0.0
5,83,0,' 1',1,1,1,0.0,0.0,2,'            ',1,0,1.0,0,1.0,0,1.0,0,1.0
0.0061,0.04956,100.0,
1.0,0.0,0.0,350.0,420.0,504.0,0,1,1.5,0.5,1.5,1.5,33,0,0.0,0.0
1.0,0.0
6,89,0,' 1',1,1,1,0.0,0.0,2,'            ',1,0,1.0,0,1.0,0,1.0,0,1.0
0.0061,0.04956,100.0,
1.0,0.0,0.0,350.0,420.0,504.0,0,1,1.5,0.5,1.5,1.5,33,0,0.0,0.0
1.0,0.0
7,88,0,' 1',1,1,1,0.0,0.0,2,'            ',1,0,1.0,0,1.0,0,1.0,0,1.0
0.0061,0.04956,100.0,
1.0,0.0,0.0,350.0,420.0,504.0,0,1,1.5,0.5,1.5,1.5,33,0,0.0,0.0
1.0,0.0
8,76,0,' 1',1,1,1,0.0,0.0,2,'            ',1,0,1.0,0,1.0,0,1.0,0,1.0
0.0061,0.04956,100.0,
1.0,0.0,0.0,350.0,420.0,504.0,0,1,1.5,0.5,1.5,1.5,33,0,0.0,0.0
1.0,0.0
9,62,0,' 1',1,1,1,0.0,0.0,2,'            ',1,0,1.0,0,1.0,0,1.0,0,1.0
0.0061,0.04956,100.0,
1.0,0.0,0.0,350.0,420.0,504.0,0,1,1.5,0.5,1.5,1.5,33,0,0.0,0.0
1.0,0.0
11,72,0,' 1',1,1,1,0.0,0.0,2,'            ',1,0,1.0,0,1.0,0,1.0,0,1.0
0.0061,0.04956,100.0,
1.0,0.0,0.0,350.0,420.0,504.0,0,1,1.5,0.5,1.5,1.5,33,0,0.0,0.0
1.0,0.0
12,64,0,' 1',1,1,1,0.0,0.0,2,'            ',1,0,1.0,0,1.0,0,1.0,0,1.0
0.0061,0.04956,100.0,
1.0,0.0,0.0,350.0,420.0,504.0,0,1,1.5,0.5,1.5,1.5,33,0,0.0,0.0
1.0,0.0
13,86,0,' 1',1,1,1,0.0,0.0,2,'            ',1,0,1.0,0,1.0,0,1.0,0,1.0
0.0061,0.04956,100.0,
1.0,0.0,0.0,350.0,420.0,504.0,0,1,1.5,0.5,1.5,1.5,33,0,0.0,0.0
1.0,0.0
15,91,0,' 1',1,1,1,0.0,0.0,2,'            ',1,0,1.0,0,1.0,0,1.0,0,1.0
0.0061,0.04956,100.0,
1.0,0.0,0.0,350.0,420.0,504.0,0,1,1.5,0.5,1.5,1.5,33,0,0.0,0.0
1.0,0.0
16,71,0,' 1',1,1,1,0.0,0.0,2,'            ',1,0,1.0,0,1.0,0,1.0,0,1.0
0.0061,0.04956,100.0,
1.0,0.0,0.0,350.0,420.0,504.0,0,1,1.5,0.5,1.5,1.5,33,0,0.0,0.0
1.0,0.0
17,94,0,' 1',1,1,1,0.0,0.0,2,'            ',1,0,1.0,0,1.0,0,1.0,0,1.0
0.0061,0.04956,100.0,
1.0,0.0,0.0,350.0,420.0,504.0,0,1,1.5,0.5,1.5,1.5,33,0,0.0,0.0
1.0,0.0
19,71,0,' 1',1,1,1,0.0,0.0,2,'            ',1,0,1.0,0,1.0,0,1.0,0,1.0
0.0061,0.04956,100.0,
1.0,0.0,0.0,350.0,420.0,504.0,0,1,1.5,0.5,1.5,1.5,33,0,0.0,0.0
1.0,0.0
20,81,0,' 1',1,1,1,0.0,0.0,2,'            ',1,0,1.0,0,1.0,0,1.0,0,1.0
0.0061,0.04956,100.0,
1.0,0.0,0.0,350.0,420.0,504.0,0,1,1.5,0.5,1.5,1.5,33,0,0.0,0.0
1.0,0.0
21,93,0,' 1',1,1,1,0.0,0.0,2,'            ',1,0,1.0,0,1.0,0,1.0,0,1.0
0.0061,0.04956,100.0,
1.0,0.0,0.0,350.0,420.0,504.0,0,1,1.5,0.5,1.5,1.5,33,0,0.0,0.0
1.0,0.0
22,82,0,' 1',1,1,1,0.0,0.0,2,'            ',1,0,1.0,0,1.0,0,1.0,0,1.0
0.0061,0.04956,100.0,
1.0,0.0,0.0,350.0,420.0,504.0,0,1,1.5,0.5,1.5,1.5,33,0,0.0,0.0
1.0,0.0
24,87,0,' 1',1,1,1,0.0,0.0,2,'            ',1,0,1.0,0,1.0,0,1.0,0,1.0
0.0061,0.04956,100.0,
1.0,0.0,0.0,350.0,420.0,504.0,0,1,1.5,0.5,1.5,1.5,33,0,0.0,0.0
1.0,0.0
25,82,0,' 1',1,1,1,0.0,0.0,2,'            ',1,0,1.0,0,1.0,0,1.0,0,1.0
0.0061,0.04956,100.0,
1.0,0.0,0.0,350.0,420.0,504.0,0,1,1.5,0.5,1.5,1.5,33,0,0.0,0.0
1.0,0.0
26,74,0,' 1',1,1,1,0.0,0.0,2,'            ',1,0,1.0,0,1.0,0,1.0,0,1.0
0.0061,0.04956,100.0,
1.0,0.0,0.0,350.0,420.0,504.0,0,1,1.5,0.5,1.5,1.5,33,0,0.0,0.0
1.0,0.0
27,70,0,' 1',1,1,1,0.0,0.0,2,'            ',1,0,1.0,0,1.0,0,1.0,0,1.0
0.0061,0.04956,100.0,
1.0,0.0,0.0,350.0,420.0,504.0,0,1,1.5,0.5,1.5,1.5,33,0,0.0,0.0
1.0,0.0
29,73,0,' 1',1,1,1,0.0,0.0,2,'            ',1,0,1.0,0,1.0,0,1.0,0,1.0
0.0061,0.04956,100.0,
1.0,0.0,0.0,350.0,420.0,504.0,0,1,1.5,0.5,1.5,1.5,33,0,0.0,0.0
1.0,0.0
30,63,0,' 1',1,1,1,0.0,0.0,2,'            ',1,0,1.0,0,1.0,0,1.0,0,1.0
0.0061,0.04956,100.0,
1.0,0.0,0.0,350.0,420.0,504.0,0,1,1.5,0.5,1.5,1.5,33,0,0.0,0.0
1.0,0.0
31,85,0,' 1',1,1,1,0.0,0.0,2,'            ',1,0,1.0,0,1.0,0,1.0,0,1.0
0.0061,0.04956,100.0,
1.0,0.0,0.0,350.0,420.0,504.0,0,1,1.5,0.5,1.5,1.5,33,0,0.0,0.0
1.0,0.0
32,87,0,' 1',1,1,1,0.0,0.0,2,'            ',1,0,1.0,0,1.0,0,1.0,0,1.0
0.0061,0.04956,100.0,
1.0,0.0,0.0,350.0,420.0,504.0,0,1,1.5,0.5,1.5,1.5,33,0,0.0,0.0
1.0,0.0
33,75,0,' 1',1,1,1,0.0,0.0,2,'            ',1,0,1.0,0,1.0,0,1.0,0,1.0
0.0061,0.04956,100.0,
1.0,0.0,0.0,350.0,420.0,504.0,0,1,1.5,0.5,1.5,1.5,33,0,0.0,0.0
1.0,0.0
34,78,0,' 1',1,1,1,0.0,0.0,2,'            ',1,0,1.0,0,1.0,0,1.0,0,1.0
0.0061,0.04956,100.0,
1.0,0.0,0.0,350.0,420.0,504.0,0,1,1.5,0.5,1.5,1.5,33,0,0.0,0.0
1.0,0.0
35,95,0,' 1',1,1,1,0.0,0.0,2,'            ',1,0,1.0,0,1.0,0,1.0,0,1.0
0.0061,0.04956,100.0,
1.0,0.0,0.0,350.0,420.0,504.0,0,1,1.5,0.5,1.5,1.5,33,0,0.0,0.0
1.0,0.0
36,77,0,' 1',1,1,1,0.0,0.0,2,'            ',1,0,1.0,0,1.0,0,1.0,0,1.0
0.0061,0.04956,100.0,
1.0,0.0,0.0,350.0,420.0,504.0,0,1,1.5,0.5,1.5,1.5,33,0,0.0,0.0
1.0,0.0
37,66,0,' 1',1,1,1,0.0,0.0,2,'            ',1,0,1.0,0,1.0,0,1.0,0,1.0
0.0061,0.04956,100.0,
1.0,0.0,0.0,350.0,420.0,504.0,0,1,1.5,0.5,1.5,1.5,33,0,0.0,0.0
1.0,0.0
38,96,0,' 1',1,1,1,0.0,0.0,2,'            ',1,0,1.0,0,1.0,0,1.0,0,1.0
0.0061,0.04956,100.0,
1.0,0.0,0.0,350.0,420.0,504.0,0,1,1.5,0.5,1.5,1.5,33,0,0.0,0.0
1.0,0.0
40,68,0,' 1',1,1,1,0.0,0.0,2,'            ',1,0,1.0,0,1.0,0,1.0,0,1.0
0.0061,0.04956,100.0,
1.0,0.0,0.0,350.0,420.0,504.0,0,1,1.5,0.5,1.5,1.5,33,0,0.0,0.0
1.0,0.0
41,78,0,' 1',1,1,1,0.0,0.0,2,'            ',1,0,1.0,0,1.0,0,1.0,0,1.0
0.0061,0.04956,100.0,
1.0,0.0,0.0,350.0,420.0,504.0,0,1,1.5,0.5,1.5,1.5,33,0,0.0,0.0
1.0,0.0
42,79,0,' 1',1,1,1,0.0,0.0,2,'            ',1,0,1.0,0,1.0,0,1.0,0,1.0
0.0061,0.04956,100.0,
1.0,0.0,0.0,350.0,420.0,504.0,0,1,1.5,0.5,1.5,1.5,33,0,0.0,0.0
1.0,0.0
43,67,0,' 1',1,1,1,0.0,0.0,2,'            ',1,0,1.0,0,1.0,0,1.0,0,1.0
0.0061,0.04956,100.0,
1.0,0.0,0.0,350.0,420.0,504.0,0,1,1.5,0.5,1.5,1.5,33,0,0.0,0.0
1.0,0.0
44,80,0,' 1',1,1,1,0.0,0.0,2,'            ',1,0,1.0,0,1.0,0,1.0,0,1.0
0.0061,0.04956,100.0,
1.0,0.0,0.0,350.0,420.0,504.0,0,1,1.5,0.5,1.5,1.5,33,0,0.0,0.0
1.0,0.0
45,92,0,' 1',1,1,1,0.0,0.0,2,'            ',1,0,1.0,0,1.0,0,1.0,0,1.0
0.0061,0.04956,100.0,
1.0,0.0,0.0,350.0,420.0,504.0,0,1,1.5,0.5,1.5,1.5,33,0,0.0,0.0
1.0,0.0
47,84,0,' 1',1,1,1,0.0,0.0,2,'            ',1,0,1.0,0,1.0,0,1.0,0,1.0
0.0061,0.04956,100.0,
1.0,0.0,0.0,350.0,420.0,504.0,0,1,1.5,0.5,1.5,1.5,33,0,0.0,0.0
1.0,0.0
49,78,0,' 1',1,1,1,0.0,0.0,2,'            ',1,0,1.0,0,1.0,0,1.0,0,1.0
0.0061,0.04956,100.0,
1.0,0.0,0.0,350.0,420.0,504.0,0,1,1.5,0.5,1.5,1.5,33,0,0.0,0.0
1.0,0.0
50,67,0,' 1',1,1,1,0.0,0.0,2,'            ',1,0,1.0,0,1.0,0,1.0,0,1.0
0.0061,0.04956,100.0,
1.0,0.0,0.0,350.0,420.0,504.0,0,1,1.5,0.5,1.5,1.5,33,0,0.0,0.0
1.0,0.0
51,9,0,' 1',1,1,1,0.0,0.0,2,'            ',1,0,1.0,0,1.0,0,1.0,0,1.0
0.00228,0.07997,100.0,
1.0,0.0,0.0,700.0,840.0,1008.0,0,1,1.5,0.5,1.5,1.5,33,0,0.0,0.0
1.0,0.0
52,30,0,' 1',1,1,1,0.0,0.0,2,'            ',1,0,1.0,0,1.0,0,1.0,0,1.0
0.00228,0.07997,100.0,
1.0,0.0,0.0,700.0,840.0,1008.0,0,1,1.5,0.5,1.5,1.5,33,0,0.0,0.0
1.0,0.0
53,10,0,' 1',1,1,1,0.0,0.0,2,'            ',1,0,1.0,0,1.0,0,1.0,0,1.0
0.00228,0.07997,100.0,
1.0,0.0,0.0,700.0,840.0,1008.0,0,1,1.5,0.5,1.5,1.5,33,0,0.0,0.0
1.0,0.0
54,2,0,' 1',1,1,1,0.0,0.0,2,'            ',1,0,1.0,0,1.0,0,1.0,0,1.0
0.00228,0.07997,100.0,
1.0,0.0,0.0,700.0,840.0,1008.0,0,1,1.5,0.5,1.5,1.5,33,0,0.0,0.0
1.0,0.0
55,32,0,' 1',1,1,1,0.0,0.0,2,'            ',1,0,1.0,0,1.0,0,1.0,0,1.0
0.00228,0.07997,100.0,
1.0,0.0,0.0,700.0,840.0,1008.0,0,1,1.5,0.5,1.5,1.5,33,0,0.0,0.0
1.0,0.0
56,9,0,' 1',1,1,1,0.0,0.0,2,'            ',1,0,1.0,0,1.0,0,1.0,0,1.0
0.001630692,0.0126704768,100.0,
1.0,0.0,0.0,700.0,840.0,1008.0,0,1,1.5,0.5,1.5,1.5,33,0,0.0,0.0
1.0,0.0
56,34,0,' 1',1,1,1,0.0,0.0,2,'            ',1,0,1.0,0,1.0,0,1.0,0,1.0
0.00228,0.07997,100.0,
1.0,0.0,0.0,700.0,840.0,1008.0,0,1,1.5,0.5,1.5,1.5,33,0,0.0,0.0
1.0,0.0
57,1,0,' 1',1,1,1,0.0,0.0,2,'            ',1,0,1.0,0,1.0,0,1.0,0,1.0
0.00228,0.07997,100.0,
1.0,0.0,0.0,700.0,840.0,1008.0,0,1,1.5,0.5,1.5,1.5,33,0,0.0,0.0
1.0,0.0
58,35,0,' 1',1,1,1,0.0,0.0,2,'            ',1,0,1.0,0,1.0,0,1.0,0,1.0
0.00228,0.07997,100.0,
1.0,0.0,0.0,700.0,840.0,1008.0,0,1,1.5,0.5,1.5,1.5,33,0,0.0,0.0
1.0,0.0
...
0 / END OF TRANSFORMER DATA, BEGIN AREA INTERCHANGE DATA
1,0,0.0,10.0,'            '
0 / END OF AREA INTERCHANGE DATA, BEGIN TWO-TERMINAL DC LINE DATA
0 / END OF TWO-TERMINAL DC LINE DATA, BEGIN VSC DC LINE DATA
0 / END OF VSC DC LINE DATA, BEGIN SWITCHED SHUNT DATA
3,2,1.075,0.9875,0,100.0,'            ',11.67278664,15,-1.0,40,1.0,0,0.0,0,0.0,0,0.0,0,0.0,0,0.0,0,0.0
4,2,1.075,0.9875,0,100.0,'            ',-5.90787093,15,-1.0,40,1.0,0,0.0,0,0.0,0,0.0,0,0.0,0,0.0,0,0.0
5,2,1.075,0.9875,0,100.0,'            ',39.97720383,15,-1.0,40,1.0,0,0.0,0,0.0,0,0.0,0,0.0,0,0.0,0,0.0
8,2,1.075,0.9875,0,100.0,'            ',40.0,15,-1.0,40,1.0,0,0.0,0,0.0,0,0.0,0,0.0,0,0.0,0,0.0
20,2,1.075,0.9875,0,100.0,'            ',21.21444466,15,-1.0,40,1.0,0,0.0,0,0.0,0,0.0,0,0.0,0,0.0,0,0.0
21,2,1.075,0.9875,0,100.0,'            ',-7.77113796,15,-1.0,40,1.0,0,0.0,0,0.0,0,0.0,0,0.0,0,0.0,0,0.0
26,2,1.075,0.9875,0,100.0,'            ',16.90963325,15,-1.0,40,1.0,0,0.0,0,0.0,0,0.0,0,0.0,0,0.0,0,0.0
29,2,1.075,0.9875,0,100.0,'            ',35.04982379,15,-1.0,40,1.0,0,0.0,0,0.0,0,0.0,0,0.0,0,0.0,0,0.0
35,2,1.075,0.9875,0,100.0,'            ',36.2792482,15,-1.0,40,1.0,0,0.0,0,0.0,0,0.0,0,0.0,0,0.0,0,0.0
38,2,1.075,0.9875,0,100.0,'            ',-15.0,15,-1.0,40,1.0,0,0.0,0,0.0,0,0.0,0,0.0,0,0.0,0,0.0
48,2,1.075,0.9875,0,100.0,'            ',40.0,15,-1.0,40,1.0,0,0.0,0,0.0,0,0.0,0,0.0,0,0.0,0,0.0
0 / END OF SWITCHED SHUNT DATA, BEGIN TRANSFORMER IMPEDANCE CORRECTION DATA
0 / END OF TRANSFORMER IMPEDANCE CORRECTION DATA, BEGIN MULTI-TERMINAL DC LINE DATA
0 / END OF MULTI-TERMINAL DC LINE DATA, BEGIN MULTI-SECTION LINE GROUPING DATA
0 / END OF MULTI-SECTION LINE GROUPING DATA, BEGIN ZONE DATA
0 / END OF ZONE DATA, BEGIN INTER-AREA TRANSFER DATA
0 / END OF INTER-AREA TRANSFER DATA, BEGIN OWNER DATA
0 / END OF OWNER DATA, BEGIN FACTS CONTROL DEVICE DATA
0 / END OF FACTS CONTROL DEVICE DATA, END OF CASE DATA
